
---------- Begin Simulation Statistics ----------
simSeconds                                   0.572003                       # Number of seconds simulated (Second)
simTicks                                 572002500127                       # Number of ticks simulated (Tick)
finalTick                                10405742078868                       # Number of ticks from beginning of simulation (restored from checkpoints and never reset) (Tick)
simFreq                                  1000000000000                       # The number of ticks per simulated second ((Tick/Second))
hostSeconds                                     33.31                       # Real time elapsed on the host (Second)
hostTickRate                              17171831011                       # The number of ticks simulated per host second (ticks/s) ((Tick/Second))
hostMemory                                   14046192                       # Number of bytes of host memory used (Byte)
simInsts                                     20524212                       # Number of instructions simulated (Count)
simOps                                       43552861                       # Number of ops (including micro ops) simulated (Count)
hostInstRate                                   616147                       # Simulator instruction rate (inst/s) ((Count/Second))
hostOpRate                                    1307478                       # Simulator op (including micro ops) rate (op/s) ((Count/Second))
board.cache_hierarchy.ruby_system.delayHistogram::bucket_size            8                       # delay histogram for all message (Unspecified)
board.cache_hierarchy.ruby_system.delayHistogram::max_bucket           79                       # delay histogram for all message (Unspecified)
board.cache_hierarchy.ruby_system.delayHistogram::samples       680609                       # delay histogram for all message (Unspecified)
board.cache_hierarchy.ruby_system.delayHistogram::mean     0.216012                       # delay histogram for all message (Unspecified)
board.cache_hierarchy.ruby_system.delayHistogram::stdev     1.354651                       # delay histogram for all message (Unspecified)
board.cache_hierarchy.ruby_system.delayHistogram |      662947     97.40%     97.40% |       17476      2.57%     99.97% |         107      0.02%     99.99% |          28      0.00%     99.99% |          22      0.00%    100.00% |          18      0.00%    100.00% |          11      0.00%    100.00% |           0      0.00%    100.00% |           0      0.00%    100.00% |           0      0.00%    100.00% # delay histogram for all message (Unspecified)
board.cache_hierarchy.ruby_system.delayHistogram::total       680609                       # delay histogram for all message (Unspecified)
board.cache_hierarchy.ruby_system.m_outstandReqHistSeqr::bucket_size           32                       (Unspecified)
board.cache_hierarchy.ruby_system.m_outstandReqHistSeqr::max_bucket          319                       (Unspecified)
board.cache_hierarchy.ruby_system.m_outstandReqHistSeqr::samples     25474355                       (Unspecified)
board.cache_hierarchy.ruby_system.m_outstandReqHistSeqr::mean     1.002123                       (Unspecified)
board.cache_hierarchy.ruby_system.m_outstandReqHistSeqr::gmean     1.000147                       (Unspecified)
board.cache_hierarchy.ruby_system.m_outstandReqHistSeqr::stdev     0.459862                       (Unspecified)
board.cache_hierarchy.ruby_system.m_outstandReqHistSeqr |    25473734    100.00%    100.00% |         416      0.00%    100.00% |          44      0.00%    100.00% |          32      0.00%    100.00% |          32      0.00%    100.00% |          97      0.00%    100.00% |           0      0.00%    100.00% |           0      0.00%    100.00% |           0      0.00%    100.00% |           0      0.00%    100.00% (Unspecified)
board.cache_hierarchy.ruby_system.m_outstandReqHistSeqr::total     25474355                       (Unspecified)
board.cache_hierarchy.ruby_system.m_latencyHistSeqr::bucket_size          256                       (Unspecified)
board.cache_hierarchy.ruby_system.m_latencyHistSeqr::max_bucket         2559                       (Unspecified)
board.cache_hierarchy.ruby_system.m_latencyHistSeqr::samples     25474356                       (Unspecified)
board.cache_hierarchy.ruby_system.m_latencyHistSeqr::mean    52.889998                       (Unspecified)
board.cache_hierarchy.ruby_system.m_latencyHistSeqr::gmean    50.806438                       (Unspecified)
board.cache_hierarchy.ruby_system.m_latencyHistSeqr::stdev    39.503742                       (Unspecified)
board.cache_hierarchy.ruby_system.m_latencyHistSeqr |    25262312     99.17%     99.17% |      162332      0.64%     99.80% |         532      0.00%     99.81% |       45588      0.18%     99.99% |        1323      0.01%     99.99% |        1613      0.01%    100.00% |         241      0.00%    100.00% |         287      0.00%    100.00% |         123      0.00%    100.00% |           5      0.00%    100.00% (Unspecified)
board.cache_hierarchy.ruby_system.m_latencyHistSeqr::total     25474356                       (Unspecified)
board.cache_hierarchy.ruby_system.m_hitLatencyHistSeqr::bucket_size           32                       (Unspecified)
board.cache_hierarchy.ruby_system.m_hitLatencyHistSeqr::max_bucket          319                       (Unspecified)
board.cache_hierarchy.ruby_system.m_hitLatencyHistSeqr::samples     25262696                       (Unspecified)
board.cache_hierarchy.ruby_system.m_hitLatencyHistSeqr::mean    50.003435                       (Unspecified)
board.cache_hierarchy.ruby_system.m_hitLatencyHistSeqr::gmean    50.001298                       (Unspecified)
board.cache_hierarchy.ruby_system.m_hitLatencyHistSeqr::stdev     0.881112                       (Unspecified)
board.cache_hierarchy.ruby_system.m_hitLatencyHistSeqr |           0      0.00%      0.00% |    25262312    100.00%    100.00% |           0      0.00%    100.00% |           0      0.00%    100.00% |           0      0.00%    100.00% |           0      0.00%    100.00% |           0      0.00%    100.00% |           0      0.00%    100.00% |         384      0.00%    100.00% |           0      0.00%    100.00% (Unspecified)
board.cache_hierarchy.ruby_system.m_hitLatencyHistSeqr::total     25262696                       (Unspecified)
board.cache_hierarchy.ruby_system.m_missLatencyHistSeqr::bucket_size          256                       (Unspecified)
board.cache_hierarchy.ruby_system.m_missLatencyHistSeqr::max_bucket         2559                       (Unspecified)
board.cache_hierarchy.ruby_system.m_missLatencyHistSeqr::samples       211660                       (Unspecified)
board.cache_hierarchy.ruby_system.m_missLatencyHistSeqr::mean   397.415974                       (Unspecified)
board.cache_hierarchy.ruby_system.m_missLatencyHistSeqr::gmean   341.932587                       (Unspecified)
board.cache_hierarchy.ruby_system.m_missLatencyHistSeqr::stdev   260.834433                       (Unspecified)
board.cache_hierarchy.ruby_system.m_missLatencyHistSeqr |           0      0.00%      0.00% |      161948     76.51%     76.51% |         532      0.25%     76.76% |       45588     21.54%     98.30% |        1323      0.63%     98.93% |        1613      0.76%     99.69% |         241      0.11%     99.80% |         287      0.14%     99.94% |         123      0.06%    100.00% |           5      0.00%    100.00% (Unspecified)
board.cache_hierarchy.ruby_system.m_missLatencyHistSeqr::total       211660                       (Unspecified)
board.cache_hierarchy.ruby_system.delayVCHist.vnet_0::bucket_size            2                       # delay histogram for vnet_0 (Unspecified)
board.cache_hierarchy.ruby_system.delayVCHist.vnet_0::max_bucket           19                       # delay histogram for vnet_0 (Unspecified)
board.cache_hierarchy.ruby_system.delayVCHist.vnet_0::samples       290629                       # delay histogram for vnet_0 (Unspecified)
board.cache_hierarchy.ruby_system.delayVCHist.vnet_0::mean     0.474006                       # delay histogram for vnet_0 (Unspecified)
board.cache_hierarchy.ruby_system.delayVCHist.vnet_0::stdev     1.888708                       # delay histogram for vnet_0 (Unspecified)
board.cache_hierarchy.ruby_system.delayVCHist.vnet_0 |      273405     94.07%     94.07% |           4      0.00%     94.07% |           2      0.00%     94.08% |           3      0.00%     94.08% |       17213      5.92%    100.00% |           1      0.00%    100.00% |           1      0.00%    100.00% |           0      0.00%    100.00% |           0      0.00%    100.00% |           0      0.00%    100.00% # delay histogram for vnet_0 (Unspecified)
board.cache_hierarchy.ruby_system.delayVCHist.vnet_0::total       290629                       # delay histogram for vnet_0 (Unspecified)
board.cache_hierarchy.ruby_system.delayVCHist.vnet_1::bucket_size            8                       # delay histogram for vnet_1 (Unspecified)
board.cache_hierarchy.ruby_system.delayVCHist.vnet_1::max_bucket           79                       # delay histogram for vnet_1 (Unspecified)
board.cache_hierarchy.ruby_system.delayVCHist.vnet_1::samples       368784                       # delay histogram for vnet_1 (Unspecified)
board.cache_hierarchy.ruby_system.delayVCHist.vnet_1::mean     0.025110                       # delay histogram for vnet_1 (Unspecified)
board.cache_hierarchy.ruby_system.delayVCHist.vnet_1::stdev     0.695648                       # delay histogram for vnet_1 (Unspecified)
board.cache_hierarchy.ruby_system.delayVCHist.vnet_1 |      368337     99.88%     99.88% |         261      0.07%     99.95% |         107      0.03%     99.98% |          28      0.01%     99.99% |          22      0.01%     99.99% |          18      0.00%    100.00% |          11      0.00%    100.00% |           0      0.00%    100.00% |           0      0.00%    100.00% |           0      0.00%    100.00% # delay histogram for vnet_1 (Unspecified)
board.cache_hierarchy.ruby_system.delayVCHist.vnet_1::total       368784                       # delay histogram for vnet_1 (Unspecified)
board.cache_hierarchy.ruby_system.delayVCHist.vnet_2::bucket_size            1                       # delay histogram for vnet_2 (Unspecified)
board.cache_hierarchy.ruby_system.delayVCHist.vnet_2::max_bucket            9                       # delay histogram for vnet_2 (Unspecified)
board.cache_hierarchy.ruby_system.delayVCHist.vnet_2::samples        21196                       # delay histogram for vnet_2 (Unspecified)
board.cache_hierarchy.ruby_system.delayVCHist.vnet_2 |       21196    100.00%    100.00% |           0      0.00%    100.00% |           0      0.00%    100.00% |           0      0.00%    100.00% |           0      0.00%    100.00% |           0      0.00%    100.00% |           0      0.00%    100.00% |           0      0.00%    100.00% |           0      0.00%    100.00% |           0      0.00%    100.00% # delay histogram for vnet_2 (Unspecified)
board.cache_hierarchy.ruby_system.delayVCHist.vnet_2::total        21196                       # delay histogram for vnet_2 (Unspecified)
board.cache_hierarchy.ruby_system.Directory_Controller.Fetch |       24718     49.72%     49.72% |       24526     49.34%     99.06% |         467      0.94%    100.00% (Unspecified)
board.cache_hierarchy.ruby_system.Directory_Controller.Fetch::total        49711                       (Unspecified)
board.cache_hierarchy.ruby_system.Directory_Controller.Data |        8603     49.50%     49.50% |        8590     49.42%     98.92% |         187      1.08%    100.00% (Unspecified)
board.cache_hierarchy.ruby_system.Directory_Controller.Data::total        17380                       (Unspecified)
board.cache_hierarchy.ruby_system.Directory_Controller.Memory_Data |       24777     49.76%     49.76% |       24545     49.30%     99.06% |         467      0.94%    100.00% (Unspecified)
board.cache_hierarchy.ruby_system.Directory_Controller.Memory_Data::total        49789                       (Unspecified)
board.cache_hierarchy.ruby_system.Directory_Controller.Memory_Ack |       22299     49.79%     49.79% |       22298     49.79%     99.58% |         187      0.42%    100.00% (Unspecified)
board.cache_hierarchy.ruby_system.Directory_Controller.Memory_Ack::total        44784                       (Unspecified)
board.cache_hierarchy.ruby_system.Directory_Controller.DMA_READ |          84     79.25%     79.25% |          22     20.75%    100.00% |           0      0.00%    100.00% (Unspecified)
board.cache_hierarchy.ruby_system.Directory_Controller.DMA_READ::total          106                       (Unspecified)
board.cache_hierarchy.ruby_system.Directory_Controller.DMA_WRITE |       13760     50.00%     50.00% |       13760     50.00%    100.00% |           0      0.00%    100.00% (Unspecified)
board.cache_hierarchy.ruby_system.Directory_Controller.DMA_WRITE::total        27520                       (Unspecified)
board.cache_hierarchy.ruby_system.Directory_Controller.CleanReplacement |       16082     49.87%     49.87% |       15881     49.24%     99.11% |         288      0.89%    100.00% (Unspecified)
board.cache_hierarchy.ruby_system.Directory_Controller.CleanReplacement::total        32251                       (Unspecified)
board.cache_hierarchy.ruby_system.Directory_Controller.I.Fetch |       24718     49.72%     49.72% |       24526     49.34%     99.06% |         467      0.94%    100.00% (Unspecified)
board.cache_hierarchy.ruby_system.Directory_Controller.I.Fetch::total        49711                       (Unspecified)
board.cache_hierarchy.ruby_system.Directory_Controller.I.DMA_READ |          59     75.64%     75.64% |          19     24.36%    100.00% |           0      0.00%    100.00% (Unspecified)
board.cache_hierarchy.ruby_system.Directory_Controller.I.DMA_READ::total           78                       (Unspecified)
board.cache_hierarchy.ruby_system.Directory_Controller.I.DMA_WRITE |       13696     49.98%     49.98% |       13708     50.02%    100.00% |           0      0.00%    100.00% (Unspecified)
board.cache_hierarchy.ruby_system.Directory_Controller.I.DMA_WRITE::total        27404                       (Unspecified)
board.cache_hierarchy.ruby_system.Directory_Controller.ID.Memory_Data |          59     75.64%     75.64% |          19     24.36%    100.00% |           0      0.00%    100.00% (Unspecified)
board.cache_hierarchy.ruby_system.Directory_Controller.ID.Memory_Data::total           78                       (Unspecified)
board.cache_hierarchy.ruby_system.Directory_Controller.ID_W.Memory_Ack |       13696     49.98%     49.98% |       13708     50.02%    100.00% |           0      0.00%    100.00% (Unspecified)
board.cache_hierarchy.ruby_system.Directory_Controller.ID_W.Memory_Ack::total        27404                       (Unspecified)
board.cache_hierarchy.ruby_system.Directory_Controller.M.Data |        8514     49.40%     49.40% |        8535     49.52%     98.92% |         187      1.08%    100.00% (Unspecified)
board.cache_hierarchy.ruby_system.Directory_Controller.M.Data::total        17236                       (Unspecified)
board.cache_hierarchy.ruby_system.Directory_Controller.M.DMA_READ |          25     89.29%     89.29% |           3     10.71%    100.00% |           0      0.00%    100.00% (Unspecified)
board.cache_hierarchy.ruby_system.Directory_Controller.M.DMA_READ::total           28                       (Unspecified)
board.cache_hierarchy.ruby_system.Directory_Controller.M.DMA_WRITE |          64     55.17%     55.17% |          52     44.83%    100.00% |           0      0.00%    100.00% (Unspecified)
board.cache_hierarchy.ruby_system.Directory_Controller.M.DMA_WRITE::total          116                       (Unspecified)
board.cache_hierarchy.ruby_system.Directory_Controller.M.CleanReplacement |       16082     49.87%     49.87% |       15881     49.24%     99.11% |         288      0.89%    100.00% (Unspecified)
board.cache_hierarchy.ruby_system.Directory_Controller.M.CleanReplacement::total        32251                       (Unspecified)
board.cache_hierarchy.ruby_system.Directory_Controller.IM.Memory_Data |       24718     49.72%     49.72% |       24526     49.34%     99.06% |         467      0.94%    100.00% (Unspecified)
board.cache_hierarchy.ruby_system.Directory_Controller.IM.Memory_Data::total        49711                       (Unspecified)
board.cache_hierarchy.ruby_system.Directory_Controller.MI.Memory_Ack |        8514     49.40%     49.40% |        8535     49.52%     98.92% |         187      1.08%    100.00% (Unspecified)
board.cache_hierarchy.ruby_system.Directory_Controller.MI.Memory_Ack::total        17236                       (Unspecified)
board.cache_hierarchy.ruby_system.Directory_Controller.M_DRD.Data |          25     89.29%     89.29% |           3     10.71%    100.00% |           0      0.00%    100.00% (Unspecified)
board.cache_hierarchy.ruby_system.Directory_Controller.M_DRD.Data::total           28                       (Unspecified)
board.cache_hierarchy.ruby_system.Directory_Controller.M_DRDI.Memory_Ack |          25     89.29%     89.29% |           3     10.71%    100.00% |           0      0.00%    100.00% (Unspecified)
board.cache_hierarchy.ruby_system.Directory_Controller.M_DRDI.Memory_Ack::total           28                       (Unspecified)
board.cache_hierarchy.ruby_system.Directory_Controller.M_DWR.Data |          64     55.17%     55.17% |          52     44.83%    100.00% |           0      0.00%    100.00% (Unspecified)
board.cache_hierarchy.ruby_system.Directory_Controller.M_DWR.Data::total          116                       (Unspecified)
board.cache_hierarchy.ruby_system.Directory_Controller.M_DWRI.Memory_Ack |          64     55.17%     55.17% |          52     44.83%    100.00% |           0      0.00%    100.00% (Unspecified)
board.cache_hierarchy.ruby_system.Directory_Controller.M_DWRI.Memory_Ack::total          116                       (Unspecified)
board.cache_hierarchy.ruby_system.DMA_Controller.ReadRequest |         106    100.00%    100.00% |           0      0.00%    100.00% |           0      0.00%    100.00% (Unspecified)
board.cache_hierarchy.ruby_system.DMA_Controller.ReadRequest::total          106                       (Unspecified)
board.cache_hierarchy.ruby_system.DMA_Controller.WriteRequest |       27520    100.00%    100.00% |           0      0.00%    100.00% |           0      0.00%    100.00% (Unspecified)
board.cache_hierarchy.ruby_system.DMA_Controller.WriteRequest::total        27520                       (Unspecified)
board.cache_hierarchy.ruby_system.DMA_Controller.Data |         106    100.00%    100.00% |           0      0.00%    100.00% |           0      0.00%    100.00% (Unspecified)
board.cache_hierarchy.ruby_system.DMA_Controller.Data::total          106                       (Unspecified)
board.cache_hierarchy.ruby_system.DMA_Controller.Ack |       27520    100.00%    100.00% |           0      0.00%    100.00% |           0      0.00%    100.00% (Unspecified)
board.cache_hierarchy.ruby_system.DMA_Controller.Ack::total        27520                       (Unspecified)
board.cache_hierarchy.ruby_system.DMA_Controller.READY.ReadRequest |         106    100.00%    100.00% |           0      0.00%    100.00% |           0      0.00%    100.00% (Unspecified)
board.cache_hierarchy.ruby_system.DMA_Controller.READY.ReadRequest::total          106                       (Unspecified)
board.cache_hierarchy.ruby_system.DMA_Controller.READY.WriteRequest |       27520    100.00%    100.00% |           0      0.00%    100.00% |           0      0.00%    100.00% (Unspecified)
board.cache_hierarchy.ruby_system.DMA_Controller.READY.WriteRequest::total        27520                       (Unspecified)
board.cache_hierarchy.ruby_system.DMA_Controller.BUSY_RD.Data |         106    100.00%    100.00% |           0      0.00%    100.00% |           0      0.00%    100.00% (Unspecified)
board.cache_hierarchy.ruby_system.DMA_Controller.BUSY_RD.Data::total          106                       (Unspecified)
board.cache_hierarchy.ruby_system.DMA_Controller.BUSY_WR.Ack |       27520    100.00%    100.00% |           0      0.00%    100.00% |           0      0.00%    100.00% (Unspecified)
board.cache_hierarchy.ruby_system.DMA_Controller.BUSY_WR.Ack::total        27520                       (Unspecified)
board.cache_hierarchy.ruby_system.L1Cache_Controller.Load |     2177434     99.97%     99.97% |         640      0.03%    100.00% (Unspecified)
board.cache_hierarchy.ruby_system.L1Cache_Controller.Load::total      2178074                       (Unspecified)
board.cache_hierarchy.ruby_system.L1Cache_Controller.Ifetch |    21666726    100.00%    100.00% |           0      0.00%    100.00% (Unspecified)
board.cache_hierarchy.ruby_system.L1Cache_Controller.Ifetch::total     21666726                       (Unspecified)
board.cache_hierarchy.ruby_system.L1Cache_Controller.Store |     1629173     99.98%     99.98% |         384      0.02%    100.00% (Unspecified)
board.cache_hierarchy.ruby_system.L1Cache_Controller.Store::total      1629557                       (Unspecified)
board.cache_hierarchy.ruby_system.L1Cache_Controller.Inv |       21196    100.00%    100.00% |           0      0.00%    100.00% (Unspecified)
board.cache_hierarchy.ruby_system.L1Cache_Controller.Inv::total        21196                       (Unspecified)
board.cache_hierarchy.ruby_system.L1Cache_Controller.L1_Replacement |      208814    100.00%    100.00% |           0      0.00%    100.00% (Unspecified)
board.cache_hierarchy.ruby_system.L1Cache_Controller.L1_Replacement::total       208814                       (Unspecified)
board.cache_hierarchy.ruby_system.L1Cache_Controller.Data_Exclusive |       28210     99.10%     99.10% |         256      0.90%    100.00% (Unspecified)
board.cache_hierarchy.ruby_system.L1Cache_Controller.Data_Exclusive::total        28466                       (Unspecified)
board.cache_hierarchy.ruby_system.L1Cache_Controller.Data_all_Acks |      182810     99.79%     99.79% |         384      0.21%    100.00% (Unspecified)
board.cache_hierarchy.ruby_system.L1Cache_Controller.Data_all_Acks::total       183194                       (Unspecified)
board.cache_hierarchy.ruby_system.L1Cache_Controller.WB_Ack |       36442    100.00%    100.00% |           0      0.00%    100.00% (Unspecified)
board.cache_hierarchy.ruby_system.L1Cache_Controller.WB_Ack::total        36442                       (Unspecified)
board.cache_hierarchy.ruby_system.L1Cache_Controller.NP.Load |       26684     99.05%     99.05% |         256      0.95%    100.00% (Unspecified)
board.cache_hierarchy.ruby_system.L1Cache_Controller.NP.Load::total        26940                       (Unspecified)
board.cache_hierarchy.ruby_system.L1Cache_Controller.NP.Ifetch |      169098    100.00%    100.00% |           0      0.00%    100.00% (Unspecified)
board.cache_hierarchy.ruby_system.L1Cache_Controller.NP.Ifetch::total       169098                       (Unspecified)
board.cache_hierarchy.ruby_system.L1Cache_Controller.NP.Store |       13033     97.14%     97.14% |         384      2.86%    100.00% (Unspecified)
board.cache_hierarchy.ruby_system.L1Cache_Controller.NP.Store::total        13417                       (Unspecified)
board.cache_hierarchy.ruby_system.L1Cache_Controller.NP.Inv |       15579    100.00%    100.00% |           0      0.00%    100.00% (Unspecified)
board.cache_hierarchy.ruby_system.L1Cache_Controller.NP.Inv::total        15579                       (Unspecified)
board.cache_hierarchy.ruby_system.L1Cache_Controller.I.Load |        1526    100.00%    100.00% |           0      0.00%    100.00% (Unspecified)
board.cache_hierarchy.ruby_system.L1Cache_Controller.I.Load::total         1526                       (Unspecified)
board.cache_hierarchy.ruby_system.L1Cache_Controller.I.Ifetch |          35    100.00%    100.00% |           0      0.00%    100.00% (Unspecified)
board.cache_hierarchy.ruby_system.L1Cache_Controller.I.Ifetch::total           35                       (Unspecified)
board.cache_hierarchy.ruby_system.L1Cache_Controller.I.Store |         644    100.00%    100.00% |           0      0.00%    100.00% (Unspecified)
board.cache_hierarchy.ruby_system.L1Cache_Controller.I.Store::total          644                       (Unspecified)
board.cache_hierarchy.ruby_system.L1Cache_Controller.I.L1_Replacement |        3289    100.00%    100.00% |           0      0.00%    100.00% (Unspecified)
board.cache_hierarchy.ruby_system.L1Cache_Controller.I.L1_Replacement::total         3289                       (Unspecified)
board.cache_hierarchy.ruby_system.L1Cache_Controller.S.Ifetch |    21497592    100.00%    100.00% |           0      0.00%    100.00% (Unspecified)
board.cache_hierarchy.ruby_system.L1Cache_Controller.S.Ifetch::total     21497592                       (Unspecified)
board.cache_hierarchy.ruby_system.L1Cache_Controller.S.Inv |          50    100.00%    100.00% |           0      0.00%    100.00% (Unspecified)
board.cache_hierarchy.ruby_system.L1Cache_Controller.S.Inv::total           50                       (Unspecified)
board.cache_hierarchy.ruby_system.L1Cache_Controller.S.L1_Replacement |      169083    100.00%    100.00% |           0      0.00%    100.00% (Unspecified)
board.cache_hierarchy.ruby_system.L1Cache_Controller.S.L1_Replacement::total       169083                       (Unspecified)
board.cache_hierarchy.ruby_system.L1Cache_Controller.E.Load |      753625    100.00%    100.00% |           0      0.00%    100.00% (Unspecified)
board.cache_hierarchy.ruby_system.L1Cache_Controller.E.Load::total       753625                       (Unspecified)
board.cache_hierarchy.ruby_system.L1Cache_Controller.E.Store |        6248    100.00%    100.00% |           0      0.00%    100.00% (Unspecified)
board.cache_hierarchy.ruby_system.L1Cache_Controller.E.Store::total         6248                       (Unspecified)
board.cache_hierarchy.ruby_system.L1Cache_Controller.E.Inv |        2384    100.00%    100.00% |           0      0.00%    100.00% (Unspecified)
board.cache_hierarchy.ruby_system.L1Cache_Controller.E.Inv::total         2384                       (Unspecified)
board.cache_hierarchy.ruby_system.L1Cache_Controller.E.L1_Replacement |       19230    100.00%    100.00% |           0      0.00%    100.00% (Unspecified)
board.cache_hierarchy.ruby_system.L1Cache_Controller.E.L1_Replacement::total        19230                       (Unspecified)
board.cache_hierarchy.ruby_system.L1Cache_Controller.M.Load |     1395599     99.97%     99.97% |         384      0.03%    100.00% (Unspecified)
board.cache_hierarchy.ruby_system.L1Cache_Controller.M.Load::total      1395983                       (Unspecified)
board.cache_hierarchy.ruby_system.L1Cache_Controller.M.Store |     1609248    100.00%    100.00% |           0      0.00%    100.00% (Unspecified)
board.cache_hierarchy.ruby_system.L1Cache_Controller.M.Store::total      1609248                       (Unspecified)
board.cache_hierarchy.ruby_system.L1Cache_Controller.M.Inv |        3183    100.00%    100.00% |           0      0.00%    100.00% (Unspecified)
board.cache_hierarchy.ruby_system.L1Cache_Controller.M.Inv::total         3183                       (Unspecified)
board.cache_hierarchy.ruby_system.L1Cache_Controller.M.L1_Replacement |       17212    100.00%    100.00% |           0      0.00%    100.00% (Unspecified)
board.cache_hierarchy.ruby_system.L1Cache_Controller.M.L1_Replacement::total        17212                       (Unspecified)
board.cache_hierarchy.ruby_system.L1Cache_Controller.IS.Data_Exclusive |       28210     99.10%     99.10% |         256      0.90%    100.00% (Unspecified)
board.cache_hierarchy.ruby_system.L1Cache_Controller.IS.Data_Exclusive::total        28466                       (Unspecified)
board.cache_hierarchy.ruby_system.L1Cache_Controller.IS.Data_all_Acks |      169133    100.00%    100.00% |           0      0.00%    100.00% (Unspecified)
board.cache_hierarchy.ruby_system.L1Cache_Controller.IS.Data_all_Acks::total       169133                       (Unspecified)
board.cache_hierarchy.ruby_system.L1Cache_Controller.IM.Data_all_Acks |       13677     97.27%     97.27% |         384      2.73%    100.00% (Unspecified)
board.cache_hierarchy.ruby_system.L1Cache_Controller.IM.Data_all_Acks::total        14061                       (Unspecified)
board.cache_hierarchy.ruby_system.L1Cache_Controller.M_I.Ifetch |           1    100.00%    100.00% |           0      0.00%    100.00% (Unspecified)
board.cache_hierarchy.ruby_system.L1Cache_Controller.M_I.Ifetch::total            1                       (Unspecified)
board.cache_hierarchy.ruby_system.L1Cache_Controller.M_I.WB_Ack |       36442    100.00%    100.00% |           0      0.00%    100.00% (Unspecified)
board.cache_hierarchy.ruby_system.L1Cache_Controller.M_I.WB_Ack::total        36442                       (Unspecified)
board.cache_hierarchy.ruby_system.L2Cache_Controller.L1_GET_INSTR       169133      0.00%      0.00% (Unspecified)
board.cache_hierarchy.ruby_system.L2Cache_Controller.L1_GETS        28466      0.00%      0.00% (Unspecified)
board.cache_hierarchy.ruby_system.L2Cache_Controller.L1_GETX        14061      0.00%      0.00% (Unspecified)
board.cache_hierarchy.ruby_system.L2Cache_Controller.L1_PUTX        36442      0.00%      0.00% (Unspecified)
board.cache_hierarchy.ruby_system.L2Cache_Controller.L2_Replacement        14561      0.00%      0.00% (Unspecified)
board.cache_hierarchy.ruby_system.L2Cache_Controller.L2_Replacement_clean        34926      0.00%      0.00% (Unspecified)
board.cache_hierarchy.ruby_system.L2Cache_Controller.Mem_Data        49711      0.00%      0.00% (Unspecified)
board.cache_hierarchy.ruby_system.L2Cache_Controller.Mem_Ack        49631      0.00%      0.00% (Unspecified)
board.cache_hierarchy.ruby_system.L2Cache_Controller.WB_Data         3183      0.00%      0.00% (Unspecified)
board.cache_hierarchy.ruby_system.L2Cache_Controller.Ack_all        18013      0.00%      0.00% (Unspecified)
board.cache_hierarchy.ruby_system.L2Cache_Controller.Exclusive_Unblock        42527      0.00%      0.00% (Unspecified)
board.cache_hierarchy.ruby_system.L2Cache_Controller.MEM_Inv          288      0.00%      0.00% (Unspecified)
board.cache_hierarchy.ruby_system.L2Cache_Controller.NP.L1_GET_INSTR        15612      0.00%      0.00% (Unspecified)
board.cache_hierarchy.ruby_system.L2Cache_Controller.NP.L1_GETS        22431      0.00%      0.00% (Unspecified)
board.cache_hierarchy.ruby_system.L2Cache_Controller.NP.L1_GETX        11668      0.00%      0.00% (Unspecified)
board.cache_hierarchy.ruby_system.L2Cache_Controller.SS.L1_GET_INSTR       153520      0.00%      0.00% (Unspecified)
board.cache_hierarchy.ruby_system.L2Cache_Controller.SS.L2_Replacement_clean        15629      0.00%      0.00% (Unspecified)
board.cache_hierarchy.ruby_system.L2Cache_Controller.M.L1_GET_INSTR            1      0.00%      0.00% (Unspecified)
board.cache_hierarchy.ruby_system.L2Cache_Controller.M.L1_GETS         6035      0.00%      0.00% (Unspecified)
board.cache_hierarchy.ruby_system.L2Cache_Controller.M.L1_GETX         2393      0.00%      0.00% (Unspecified)
board.cache_hierarchy.ruby_system.L2Cache_Controller.M.L2_Replacement        14016      0.00%      0.00% (Unspecified)
board.cache_hierarchy.ruby_system.L2Cache_Controller.M.L2_Replacement_clean        14305      0.00%      0.00% (Unspecified)
board.cache_hierarchy.ruby_system.L2Cache_Controller.M.MEM_Inv          114      0.00%      0.00% (Unspecified)
board.cache_hierarchy.ruby_system.L2Cache_Controller.MT.L1_PUTX        36442      0.00%      0.00% (Unspecified)
board.cache_hierarchy.ruby_system.L2Cache_Controller.MT.L2_Replacement          545      0.00%      0.00% (Unspecified)
board.cache_hierarchy.ruby_system.L2Cache_Controller.MT.L2_Replacement_clean         4992      0.00%      0.00% (Unspecified)
board.cache_hierarchy.ruby_system.L2Cache_Controller.MT.MEM_Inv           30      0.00%      0.00% (Unspecified)
board.cache_hierarchy.ruby_system.L2Cache_Controller.M_I.Mem_Ack        49631      0.00%      0.00% (Unspecified)
board.cache_hierarchy.ruby_system.L2Cache_Controller.M_I.MEM_Inv          114      0.00%      0.00% (Unspecified)
board.cache_hierarchy.ruby_system.L2Cache_Controller.MT_I.WB_Data          508      0.00%      0.00% (Unspecified)
board.cache_hierarchy.ruby_system.L2Cache_Controller.MT_I.Ack_all           67      0.00%      0.00% (Unspecified)
board.cache_hierarchy.ruby_system.L2Cache_Controller.MT_I.MEM_Inv           30      0.00%      0.00% (Unspecified)
board.cache_hierarchy.ruby_system.L2Cache_Controller.MCT_I.WB_Data         2675      0.00%      0.00% (Unspecified)
board.cache_hierarchy.ruby_system.L2Cache_Controller.MCT_I.Ack_all         2317      0.00%      0.00% (Unspecified)
board.cache_hierarchy.ruby_system.L2Cache_Controller.I_I.Ack_all        15629      0.00%      0.00% (Unspecified)
board.cache_hierarchy.ruby_system.L2Cache_Controller.ISS.Mem_Data        22431      0.00%      0.00% (Unspecified)
board.cache_hierarchy.ruby_system.L2Cache_Controller.IS.Mem_Data        15612      0.00%      0.00% (Unspecified)
board.cache_hierarchy.ruby_system.L2Cache_Controller.IM.Mem_Data        11668      0.00%      0.00% (Unspecified)
board.cache_hierarchy.ruby_system.L2Cache_Controller.MT_MB.Exclusive_Unblock        42527      0.00%      0.00% (Unspecified)
board.cache_hierarchy.ruby_system.RequestType.LD.latency_hist_seqr::bucket_size          256                       (Unspecified)
board.cache_hierarchy.ruby_system.RequestType.LD.latency_hist_seqr::max_bucket         2559                       (Unspecified)
board.cache_hierarchy.ruby_system.RequestType.LD.latency_hist_seqr::samples      2178074                       (Unspecified)
board.cache_hierarchy.ruby_system.RequestType.LD.latency_hist_seqr::mean    58.808734                       (Unspecified)
board.cache_hierarchy.ruby_system.RequestType.LD.latency_hist_seqr::gmean    51.722325                       (Unspecified)
board.cache_hierarchy.ruby_system.RequestType.LD.latency_hist_seqr::stdev    82.674216                       (Unspecified)
board.cache_hierarchy.ruby_system.RequestType.LD.latency_hist_seqr |     2149224     98.68%     98.68% |        6419      0.29%     98.97% |         278      0.01%     98.98% |       20529      0.94%     99.93% |         638      0.03%     99.95% |         720      0.03%     99.99% |         103      0.00%     99.99% |         103      0.00%    100.00% |          60      0.00%    100.00% |           0      0.00%    100.00% (Unspecified)
board.cache_hierarchy.ruby_system.RequestType.LD.latency_hist_seqr::total      2178074                       (Unspecified)
board.cache_hierarchy.ruby_system.RequestType.LD.hit_latency_hist_seqr::bucket_size           32                       (Unspecified)
board.cache_hierarchy.ruby_system.RequestType.LD.hit_latency_hist_seqr::max_bucket          319                       (Unspecified)
board.cache_hierarchy.ruby_system.RequestType.LD.hit_latency_hist_seqr::samples      2149608                       (Unspecified)
board.cache_hierarchy.ruby_system.RequestType.LD.hit_latency_hist_seqr::mean    50.040372                       (Unspecified)
board.cache_hierarchy.ruby_system.RequestType.LD.hit_latency_hist_seqr::gmean    50.015261                       (Unspecified)
board.cache_hierarchy.ruby_system.RequestType.LD.hit_latency_hist_seqr::stdev     3.020339                       (Unspecified)
board.cache_hierarchy.ruby_system.RequestType.LD.hit_latency_hist_seqr |           0      0.00%      0.00% |     2149224     99.98%     99.98% |           0      0.00%     99.98% |           0      0.00%     99.98% |           0      0.00%     99.98% |           0      0.00%     99.98% |           0      0.00%     99.98% |           0      0.00%     99.98% |         384      0.02%    100.00% |           0      0.00%    100.00% (Unspecified)
board.cache_hierarchy.ruby_system.RequestType.LD.hit_latency_hist_seqr::total      2149608                       (Unspecified)
board.cache_hierarchy.ruby_system.RequestType.LD.miss_latency_hist_seqr::bucket_size          256                       (Unspecified)
board.cache_hierarchy.ruby_system.RequestType.LD.miss_latency_hist_seqr::max_bucket         2559                       (Unspecified)
board.cache_hierarchy.ruby_system.RequestType.LD.miss_latency_hist_seqr::samples        28466                       (Unspecified)
board.cache_hierarchy.ruby_system.RequestType.LD.miss_latency_hist_seqr::mean   720.950994                       (Unspecified)
board.cache_hierarchy.ruby_system.RequestType.LD.miss_latency_hist_seqr::gmean   652.147330                       (Unspecified)
board.cache_hierarchy.ruby_system.RequestType.LD.miss_latency_hist_seqr::stdev   279.386616                       (Unspecified)
board.cache_hierarchy.ruby_system.RequestType.LD.miss_latency_hist_seqr |           0      0.00%      0.00% |        6035     21.20%     21.20% |         278      0.98%     22.18% |       20529     72.12%     94.29% |         638      2.24%     96.54% |         720      2.53%     99.07% |         103      0.36%     99.43% |         103      0.36%     99.79% |          60      0.21%    100.00% |           0      0.00%    100.00% (Unspecified)
board.cache_hierarchy.ruby_system.RequestType.LD.miss_latency_hist_seqr::total        28466                       (Unspecified)
board.cache_hierarchy.ruby_system.RequestType.ST.latency_hist_seqr::bucket_size          256                       (Unspecified)
board.cache_hierarchy.ruby_system.RequestType.ST.latency_hist_seqr::max_bucket         2559                       (Unspecified)
board.cache_hierarchy.ruby_system.RequestType.ST.latency_hist_seqr::samples      1526600                       (Unspecified)
board.cache_hierarchy.ruby_system.RequestType.ST.latency_hist_seqr::mean    56.122222                       (Unspecified)
board.cache_hierarchy.ruby_system.RequestType.ST.latency_hist_seqr::gmean    51.132841                       (Unspecified)
board.cache_hierarchy.ruby_system.RequestType.ST.latency_hist_seqr::stdev    71.984087                       (Unspecified)
board.cache_hierarchy.ruby_system.RequestType.ST.latency_hist_seqr |     1513671     99.15%     99.15% |        2076      0.14%     99.29% |         171      0.01%     99.30% |        9617      0.63%     99.93% |         200      0.01%     99.94% |         479      0.03%     99.97% |         136      0.01%     99.98% |         182      0.01%    100.00% |          63      0.00%    100.00% |           5      0.00%    100.00% (Unspecified)
board.cache_hierarchy.ruby_system.RequestType.ST.latency_hist_seqr::total      1526600                       (Unspecified)
board.cache_hierarchy.ruby_system.RequestType.ST.hit_latency_hist_seqr::bucket_size            8                       (Unspecified)
board.cache_hierarchy.ruby_system.RequestType.ST.hit_latency_hist_seqr::max_bucket           79                       (Unspecified)
board.cache_hierarchy.ruby_system.RequestType.ST.hit_latency_hist_seqr::samples      1513671                       (Unspecified)
board.cache_hierarchy.ruby_system.RequestType.ST.hit_latency_hist_seqr::mean           50                       (Unspecified)
board.cache_hierarchy.ruby_system.RequestType.ST.hit_latency_hist_seqr::gmean    50.000000                       (Unspecified)
board.cache_hierarchy.ruby_system.RequestType.ST.hit_latency_hist_seqr |           0      0.00%      0.00% |           0      0.00%      0.00% |           0      0.00%      0.00% |           0      0.00%      0.00% |           0      0.00%      0.00% |           0      0.00%      0.00% |     1513671    100.00%    100.00% |           0      0.00%    100.00% |           0      0.00%    100.00% |           0      0.00%    100.00% (Unspecified)
board.cache_hierarchy.ruby_system.RequestType.ST.hit_latency_hist_seqr::total      1513671                       (Unspecified)
board.cache_hierarchy.ruby_system.RequestType.ST.miss_latency_hist_seqr::bucket_size          256                       (Unspecified)
board.cache_hierarchy.ruby_system.RequestType.ST.miss_latency_hist_seqr::max_bucket         2559                       (Unspecified)
board.cache_hierarchy.ruby_system.RequestType.ST.miss_latency_hist_seqr::samples        12929                       (Unspecified)
board.cache_hierarchy.ruby_system.RequestType.ST.miss_latency_hist_seqr::mean   772.885297                       (Unspecified)
board.cache_hierarchy.ruby_system.RequestType.ST.miss_latency_hist_seqr::gmean   704.428454                       (Unspecified)
board.cache_hierarchy.ruby_system.RequestType.ST.miss_latency_hist_seqr::stdev   306.109390                       (Unspecified)
board.cache_hierarchy.ruby_system.RequestType.ST.miss_latency_hist_seqr |           0      0.00%      0.00% |        2076     16.06%     16.06% |         171      1.32%     17.38% |        9617     74.38%     91.76% |         200      1.55%     93.31% |         479      3.70%     97.01% |         136      1.05%     98.07% |         182      1.41%     99.47% |          63      0.49%     99.96% |           5      0.04%    100.00% (Unspecified)
board.cache_hierarchy.ruby_system.RequestType.ST.miss_latency_hist_seqr::total        12929                       (Unspecified)
board.cache_hierarchy.ruby_system.RequestType.IFETCH.latency_hist_seqr::bucket_size          256                       (Unspecified)
board.cache_hierarchy.ruby_system.RequestType.IFETCH.latency_hist_seqr::max_bucket         2559                       (Unspecified)
board.cache_hierarchy.ruby_system.RequestType.IFETCH.latency_hist_seqr::samples     21666725                       (Unspecified)
board.cache_hierarchy.ruby_system.RequestType.IFETCH.latency_hist_seqr::mean    52.049268                       (Unspecified)
board.cache_hierarchy.ruby_system.RequestType.IFETCH.latency_hist_seqr::gmean    50.689717                       (Unspecified)
board.cache_hierarchy.ruby_system.RequestType.IFETCH.latency_hist_seqr::stdev    27.475112                       (Unspecified)
board.cache_hierarchy.ruby_system.RequestType.IFETCH.latency_hist_seqr |    21497592     99.22%     99.22% |      153520      0.71%     99.93% |           1      0.00%     99.93% |       14740      0.07%    100.00% |         471      0.00%    100.00% |         397      0.00%    100.00% |           2      0.00%    100.00% |           2      0.00%    100.00% |           0      0.00%    100.00% |           0      0.00%    100.00% (Unspecified)
board.cache_hierarchy.ruby_system.RequestType.IFETCH.latency_hist_seqr::total     21666725                       (Unspecified)
board.cache_hierarchy.ruby_system.RequestType.IFETCH.hit_latency_hist_seqr::bucket_size            8                       (Unspecified)
board.cache_hierarchy.ruby_system.RequestType.IFETCH.hit_latency_hist_seqr::max_bucket           79                       (Unspecified)
board.cache_hierarchy.ruby_system.RequestType.IFETCH.hit_latency_hist_seqr::samples     21497592                       (Unspecified)
board.cache_hierarchy.ruby_system.RequestType.IFETCH.hit_latency_hist_seqr::mean           50                       (Unspecified)
board.cache_hierarchy.ruby_system.RequestType.IFETCH.hit_latency_hist_seqr::gmean    50.000000                       (Unspecified)
board.cache_hierarchy.ruby_system.RequestType.IFETCH.hit_latency_hist_seqr |           0      0.00%      0.00% |           0      0.00%      0.00% |           0      0.00%      0.00% |           0      0.00%      0.00% |           0      0.00%      0.00% |           0      0.00%      0.00% |    21497592    100.00%    100.00% |           0      0.00%    100.00% |           0      0.00%    100.00% |           0      0.00%    100.00% (Unspecified)
board.cache_hierarchy.ruby_system.RequestType.IFETCH.hit_latency_hist_seqr::total     21497592                       (Unspecified)
board.cache_hierarchy.ruby_system.RequestType.IFETCH.miss_latency_hist_seqr::bucket_size          256                       (Unspecified)
board.cache_hierarchy.ruby_system.RequestType.IFETCH.miss_latency_hist_seqr::max_bucket         2559                       (Unspecified)
board.cache_hierarchy.ruby_system.RequestType.IFETCH.miss_latency_hist_seqr::samples       169133                       (Unspecified)
board.cache_hierarchy.ruby_system.RequestType.IFETCH.miss_latency_hist_seqr::mean   312.520780                       (Unspecified)
board.cache_hierarchy.ruby_system.RequestType.IFETCH.miss_latency_hist_seqr::gmean   289.184231                       (Unspecified)
board.cache_hierarchy.ruby_system.RequestType.IFETCH.miss_latency_hist_seqr::stdev   168.299877                       (Unspecified)
board.cache_hierarchy.ruby_system.RequestType.IFETCH.miss_latency_hist_seqr |           0      0.00%      0.00% |      153520     90.77%     90.77% |           1      0.00%     90.77% |       14740      8.72%     99.48% |         471      0.28%     99.76% |         397      0.23%    100.00% |           2      0.00%    100.00% |           2      0.00%    100.00% |           0      0.00%    100.00% |           0      0.00%    100.00% (Unspecified)
board.cache_hierarchy.ruby_system.RequestType.IFETCH.miss_latency_hist_seqr::total       169133                       (Unspecified)
board.cache_hierarchy.ruby_system.RequestType.RMW_Read.latency_hist_seqr::bucket_size          256                       (Unspecified)
board.cache_hierarchy.ruby_system.RequestType.RMW_Read.latency_hist_seqr::max_bucket         2559                       (Unspecified)
board.cache_hierarchy.ruby_system.RequestType.RMW_Read.latency_hist_seqr::samples       100077                       (Unspecified)
board.cache_hierarchy.ruby_system.RequestType.RMW_Read.latency_hist_seqr::mean    56.796397                       (Unspecified)
board.cache_hierarchy.ruby_system.RequestType.RMW_Read.latency_hist_seqr::gmean    51.399576                       (Unspecified)
board.cache_hierarchy.ruby_system.RequestType.RMW_Read.latency_hist_seqr::stdev    69.673193                       (Unspecified)
board.cache_hierarchy.ruby_system.RequestType.RMW_Read.latency_hist_seqr |       98955     98.88%     98.88% |         317      0.32%     99.20% |          82      0.08%     99.28% |         692      0.69%     99.97% |          14      0.01%     99.98% |          17      0.02%    100.00% |           0      0.00%    100.00% |           0      0.00%    100.00% |           0      0.00%    100.00% |           0      0.00%    100.00% (Unspecified)
board.cache_hierarchy.ruby_system.RequestType.RMW_Read.latency_hist_seqr::total       100077                       (Unspecified)
board.cache_hierarchy.ruby_system.RequestType.RMW_Read.hit_latency_hist_seqr::bucket_size            8                       (Unspecified)
board.cache_hierarchy.ruby_system.RequestType.RMW_Read.hit_latency_hist_seqr::max_bucket           79                       (Unspecified)
board.cache_hierarchy.ruby_system.RequestType.RMW_Read.hit_latency_hist_seqr::samples        98955                       (Unspecified)
board.cache_hierarchy.ruby_system.RequestType.RMW_Read.hit_latency_hist_seqr::mean           50                       (Unspecified)
board.cache_hierarchy.ruby_system.RequestType.RMW_Read.hit_latency_hist_seqr::gmean    50.000000                       (Unspecified)
board.cache_hierarchy.ruby_system.RequestType.RMW_Read.hit_latency_hist_seqr |           0      0.00%      0.00% |           0      0.00%      0.00% |           0      0.00%      0.00% |           0      0.00%      0.00% |           0      0.00%      0.00% |           0      0.00%      0.00% |       98955    100.00%    100.00% |           0      0.00%    100.00% |           0      0.00%    100.00% |           0      0.00%    100.00% (Unspecified)
board.cache_hierarchy.ruby_system.RequestType.RMW_Read.hit_latency_hist_seqr::total        98955                       (Unspecified)
board.cache_hierarchy.ruby_system.RequestType.RMW_Read.miss_latency_hist_seqr::bucket_size          256                       (Unspecified)
board.cache_hierarchy.ruby_system.RequestType.RMW_Read.miss_latency_hist_seqr::max_bucket         2559                       (Unspecified)
board.cache_hierarchy.ruby_system.RequestType.RMW_Read.miss_latency_hist_seqr::samples         1122                       (Unspecified)
board.cache_hierarchy.ruby_system.RequestType.RMW_Read.miss_latency_hist_seqr::mean   656.205882                       (Unspecified)
board.cache_hierarchy.ruby_system.RequestType.RMW_Read.miss_latency_hist_seqr::gmean   586.648904                       (Unspecified)
board.cache_hierarchy.ruby_system.RequestType.RMW_Read.miss_latency_hist_seqr::stdev   263.964426                       (Unspecified)
board.cache_hierarchy.ruby_system.RequestType.RMW_Read.miss_latency_hist_seqr |           0      0.00%      0.00% |         317     28.25%     28.25% |          82      7.31%     35.56% |         692     61.68%     97.24% |          14      1.25%     98.48% |          17      1.52%    100.00% |           0      0.00%    100.00% |           0      0.00%    100.00% |           0      0.00%    100.00% |           0      0.00%    100.00% (Unspecified)
board.cache_hierarchy.ruby_system.RequestType.RMW_Read.miss_latency_hist_seqr::total         1122                       (Unspecified)
board.cache_hierarchy.ruby_system.RequestType.Locked_RMW_Read.latency_hist_seqr::bucket_size          128                       (Unspecified)
board.cache_hierarchy.ruby_system.RequestType.Locked_RMW_Read.latency_hist_seqr::max_bucket         1279                       (Unspecified)
board.cache_hierarchy.ruby_system.RequestType.Locked_RMW_Read.latency_hist_seqr::samples         1440                       (Unspecified)
board.cache_hierarchy.ruby_system.RequestType.Locked_RMW_Read.latency_hist_seqr::mean    55.208333                       (Unspecified)
board.cache_hierarchy.ruby_system.RequestType.Locked_RMW_Read.latency_hist_seqr::gmean    50.972031                       (Unspecified)
board.cache_hierarchy.ruby_system.RequestType.Locked_RMW_Read.latency_hist_seqr::stdev    62.304468                       (Unspecified)
board.cache_hierarchy.ruby_system.RequestType.Locked_RMW_Read.latency_hist_seqr |        1430     99.31%     99.31% |           0      0.00%     99.31% |           0      0.00%     99.31% |           0      0.00%     99.31% |           0      0.00%     99.31% |           0      0.00%     99.31% |          10      0.69%    100.00% |           0      0.00%    100.00% |           0      0.00%    100.00% |           0      0.00%    100.00% (Unspecified)
board.cache_hierarchy.ruby_system.RequestType.Locked_RMW_Read.latency_hist_seqr::total         1440                       (Unspecified)
board.cache_hierarchy.ruby_system.RequestType.Locked_RMW_Read.hit_latency_hist_seqr::bucket_size            8                       (Unspecified)
board.cache_hierarchy.ruby_system.RequestType.Locked_RMW_Read.hit_latency_hist_seqr::max_bucket           79                       (Unspecified)
board.cache_hierarchy.ruby_system.RequestType.Locked_RMW_Read.hit_latency_hist_seqr::samples         1430                       (Unspecified)
board.cache_hierarchy.ruby_system.RequestType.Locked_RMW_Read.hit_latency_hist_seqr::mean           50                       (Unspecified)
board.cache_hierarchy.ruby_system.RequestType.Locked_RMW_Read.hit_latency_hist_seqr::gmean    50.000000                       (Unspecified)
board.cache_hierarchy.ruby_system.RequestType.Locked_RMW_Read.hit_latency_hist_seqr |           0      0.00%      0.00% |           0      0.00%      0.00% |           0      0.00%      0.00% |           0      0.00%      0.00% |           0      0.00%      0.00% |           0      0.00%      0.00% |        1430    100.00%    100.00% |           0      0.00%    100.00% |           0      0.00%    100.00% |           0      0.00%    100.00% (Unspecified)
board.cache_hierarchy.ruby_system.RequestType.Locked_RMW_Read.hit_latency_hist_seqr::total         1430                       (Unspecified)
board.cache_hierarchy.ruby_system.RequestType.Locked_RMW_Read.miss_latency_hist_seqr::bucket_size          128                       (Unspecified)
board.cache_hierarchy.ruby_system.RequestType.Locked_RMW_Read.miss_latency_hist_seqr::max_bucket         1279                       (Unspecified)
board.cache_hierarchy.ruby_system.RequestType.Locked_RMW_Read.miss_latency_hist_seqr::samples           10                       (Unspecified)
board.cache_hierarchy.ruby_system.RequestType.Locked_RMW_Read.miss_latency_hist_seqr::mean          800                       (Unspecified)
board.cache_hierarchy.ruby_system.RequestType.Locked_RMW_Read.miss_latency_hist_seqr::gmean   799.997500                       (Unspecified)
board.cache_hierarchy.ruby_system.RequestType.Locked_RMW_Read.miss_latency_hist_seqr::stdev     2.108185                       (Unspecified)
board.cache_hierarchy.ruby_system.RequestType.Locked_RMW_Read.miss_latency_hist_seqr |           0      0.00%      0.00% |           0      0.00%      0.00% |           0      0.00%      0.00% |           0      0.00%      0.00% |           0      0.00%      0.00% |           0      0.00%      0.00% |          10    100.00%    100.00% |           0      0.00%    100.00% |           0      0.00%    100.00% |           0      0.00%    100.00% (Unspecified)
board.cache_hierarchy.ruby_system.RequestType.Locked_RMW_Read.miss_latency_hist_seqr::total           10                       (Unspecified)
board.cache_hierarchy.ruby_system.RequestType.Locked_RMW_Write.latency_hist_seqr::bucket_size            8                       (Unspecified)
board.cache_hierarchy.ruby_system.RequestType.Locked_RMW_Write.latency_hist_seqr::max_bucket           79                       (Unspecified)
board.cache_hierarchy.ruby_system.RequestType.Locked_RMW_Write.latency_hist_seqr::samples         1440                       (Unspecified)
board.cache_hierarchy.ruby_system.RequestType.Locked_RMW_Write.latency_hist_seqr::mean           50                       (Unspecified)
board.cache_hierarchy.ruby_system.RequestType.Locked_RMW_Write.latency_hist_seqr::gmean    50.000000                       (Unspecified)
board.cache_hierarchy.ruby_system.RequestType.Locked_RMW_Write.latency_hist_seqr |           0      0.00%      0.00% |           0      0.00%      0.00% |           0      0.00%      0.00% |           0      0.00%      0.00% |           0      0.00%      0.00% |           0      0.00%      0.00% |        1440    100.00%    100.00% |           0      0.00%    100.00% |           0      0.00%    100.00% |           0      0.00%    100.00% (Unspecified)
board.cache_hierarchy.ruby_system.RequestType.Locked_RMW_Write.latency_hist_seqr::total         1440                       (Unspecified)
board.cache_hierarchy.ruby_system.RequestType.Locked_RMW_Write.hit_latency_hist_seqr::bucket_size            8                       (Unspecified)
board.cache_hierarchy.ruby_system.RequestType.Locked_RMW_Write.hit_latency_hist_seqr::max_bucket           79                       (Unspecified)
board.cache_hierarchy.ruby_system.RequestType.Locked_RMW_Write.hit_latency_hist_seqr::samples         1440                       (Unspecified)
board.cache_hierarchy.ruby_system.RequestType.Locked_RMW_Write.hit_latency_hist_seqr::mean           50                       (Unspecified)
board.cache_hierarchy.ruby_system.RequestType.Locked_RMW_Write.hit_latency_hist_seqr::gmean    50.000000                       (Unspecified)
board.cache_hierarchy.ruby_system.RequestType.Locked_RMW_Write.hit_latency_hist_seqr |           0      0.00%      0.00% |           0      0.00%      0.00% |           0      0.00%      0.00% |           0      0.00%      0.00% |           0      0.00%      0.00% |           0      0.00%      0.00% |        1440    100.00%    100.00% |           0      0.00%    100.00% |           0      0.00%    100.00% |           0      0.00%    100.00% (Unspecified)
board.cache_hierarchy.ruby_system.RequestType.Locked_RMW_Write.hit_latency_hist_seqr::total         1440                       (Unspecified)
board.cache_hierarchy.ruby_system.directory_controllers0.power_state.pwrStateResidencyTicks::UNDEFINED 10405742078868                       # Cumulative time (in ticks) in various power states (Tick)
board.cache_hierarchy.ruby_system.directory_controllers0.requestToDir.m_msg_count        38562                       # Number of messages passed the buffer (Count)
board.cache_hierarchy.ruby_system.directory_controllers0.requestToDir.m_buf_msgs     0.000028                       # Average number of messages in buffer ((Count/Tick))
board.cache_hierarchy.ruby_system.directory_controllers0.requestToMemory.m_msg_count        47076                       # Number of messages passed the buffer (Count)
board.cache_hierarchy.ruby_system.directory_controllers0.requestToMemory.m_buf_msgs     0.000037                       # Average number of messages in buffer ((Count/Tick))
board.cache_hierarchy.ruby_system.directory_controllers0.requestToMemory.m_stall_time      1458192                       # Total number of ticks messages were stalled in this buffer (Tick)
board.cache_hierarchy.ruby_system.directory_controllers0.requestToMemory.m_avg_stall_time    30.975274                       # Average stall ticks per message ((Tick/Count))
board.cache_hierarchy.ruby_system.directory_controllers0.responseFromDir.m_msg_count        63336                       # Number of messages passed the buffer (Count)
board.cache_hierarchy.ruby_system.directory_controllers0.responseFromDir.m_buf_msgs     0.000046                       # Average number of messages in buffer ((Count/Tick))
board.cache_hierarchy.ruby_system.directory_controllers0.responseFromMemory.m_msg_count        47076                       # Number of messages passed the buffer (Count)
board.cache_hierarchy.ruby_system.directory_controllers0.responseFromMemory.m_buf_msgs     0.000045                       # Average number of messages in buffer ((Count/Tick))
board.cache_hierarchy.ruby_system.directory_controllers0.responseToDir.m_msg_count        24685                       # Number of messages passed the buffer (Count)
board.cache_hierarchy.ruby_system.directory_controllers0.responseToDir.m_buf_msgs     0.000018                       # Average number of messages in buffer ((Count/Tick))
board.cache_hierarchy.ruby_system.directory_controllers1.power_state.pwrStateResidencyTicks::UNDEFINED 10405742078868                       # Cumulative time (in ticks) in various power states (Tick)
board.cache_hierarchy.ruby_system.directory_controllers1.requestToDir.m_msg_count        38308                       # Number of messages passed the buffer (Count)
board.cache_hierarchy.ruby_system.directory_controllers1.requestToDir.m_buf_msgs     0.000028                       # Average number of messages in buffer ((Count/Tick))
board.cache_hierarchy.ruby_system.directory_controllers1.requestToMemory.m_msg_count        46843                       # Number of messages passed the buffer (Count)
board.cache_hierarchy.ruby_system.directory_controllers1.requestToMemory.m_buf_msgs     0.000036                       # Average number of messages in buffer ((Count/Tick))
board.cache_hierarchy.ruby_system.directory_controllers1.requestToMemory.m_stall_time      1327820                       # Total number of ticks messages were stalled in this buffer (Tick)
board.cache_hierarchy.ruby_system.directory_controllers1.requestToMemory.m_avg_stall_time    28.346178                       # Average stall ticks per message ((Tick/Count))
board.cache_hierarchy.ruby_system.directory_controllers1.responseFromDir.m_msg_count        62834                       # Number of messages passed the buffer (Count)
board.cache_hierarchy.ruby_system.directory_controllers1.responseFromDir.m_buf_msgs     0.000046                       # Average number of messages in buffer ((Count/Tick))
board.cache_hierarchy.ruby_system.directory_controllers1.responseFromMemory.m_msg_count        46843                       # Number of messages passed the buffer (Count)
board.cache_hierarchy.ruby_system.directory_controllers1.responseFromMemory.m_buf_msgs     0.000044                       # Average number of messages in buffer ((Count/Tick))
board.cache_hierarchy.ruby_system.directory_controllers1.responseToDir.m_msg_count        24471                       # Number of messages passed the buffer (Count)
board.cache_hierarchy.ruby_system.directory_controllers1.responseToDir.m_buf_msgs     0.000018                       # Average number of messages in buffer ((Count/Tick))
board.cache_hierarchy.ruby_system.directory_controllers2.power_state.pwrStateResidencyTicks::UNDEFINED 10405742078868                       # Cumulative time (in ticks) in various power states (Tick)
board.cache_hierarchy.ruby_system.directory_controllers2.requestToDir.m_msg_count          467                       # Number of messages passed the buffer (Count)
board.cache_hierarchy.ruby_system.directory_controllers2.requestToDir.m_buf_msgs     0.000000                       # Average number of messages in buffer ((Count/Tick))
board.cache_hierarchy.ruby_system.directory_controllers2.requestToMemory.m_msg_count          654                       # Number of messages passed the buffer (Count)
board.cache_hierarchy.ruby_system.directory_controllers2.requestToMemory.m_buf_msgs     0.000000                       # Average number of messages in buffer ((Count/Tick))
board.cache_hierarchy.ruby_system.directory_controllers2.responseFromDir.m_msg_count          942                       # Number of messages passed the buffer (Count)
board.cache_hierarchy.ruby_system.directory_controllers2.responseFromDir.m_buf_msgs     0.000001                       # Average number of messages in buffer ((Count/Tick))
board.cache_hierarchy.ruby_system.directory_controllers2.responseFromMemory.m_msg_count          654                       # Number of messages passed the buffer (Count)
board.cache_hierarchy.ruby_system.directory_controllers2.responseFromMemory.m_buf_msgs     0.000000                       # Average number of messages in buffer ((Count/Tick))
board.cache_hierarchy.ruby_system.directory_controllers2.responseToDir.m_msg_count          475                       # Number of messages passed the buffer (Count)
board.cache_hierarchy.ruby_system.directory_controllers2.responseToDir.m_buf_msgs     0.000000                       # Average number of messages in buffer ((Count/Tick))
board.cache_hierarchy.ruby_system.dma_controllers0.dma_sequencer.power_state.pwrStateResidencyTicks::UNDEFINED 10405742078868                       # Cumulative time (in ticks) in various power states (Tick)
board.cache_hierarchy.ruby_system.dma_controllers0.mandatoryQueue.m_msg_count        27626                       # Number of messages passed the buffer (Count)
board.cache_hierarchy.ruby_system.dma_controllers0.mandatoryQueue.m_buf_msgs     0.000021                       # Average number of messages in buffer ((Count/Tick))
board.cache_hierarchy.ruby_system.dma_controllers0.power_state.pwrStateResidencyTicks::UNDEFINED 10405742078868                       # Cumulative time (in ticks) in various power states (Tick)
board.cache_hierarchy.ruby_system.dma_controllers0.requestToDir.m_msg_count        27626                       # Number of messages passed the buffer (Count)
board.cache_hierarchy.ruby_system.dma_controllers0.requestToDir.m_buf_msgs     0.010070                       # Average number of messages in buffer ((Count/Tick))
board.cache_hierarchy.ruby_system.dma_controllers0.responseFromDir.m_msg_count        27626                       # Number of messages passed the buffer (Count)
board.cache_hierarchy.ruby_system.dma_controllers0.responseFromDir.m_buf_msgs     0.000020                       # Average number of messages in buffer ((Count/Tick))
board.cache_hierarchy.ruby_system.dma_controllers1.dma_sequencer.power_state.pwrStateResidencyTicks::UNDEFINED 10405742078868                       # Cumulative time (in ticks) in various power states (Tick)
board.cache_hierarchy.ruby_system.dma_controllers1.power_state.pwrStateResidencyTicks::UNDEFINED 10405742078868                       # Cumulative time (in ticks) in various power states (Tick)
board.cache_hierarchy.ruby_system.dma_controllers2.dma_sequencer.power_state.pwrStateResidencyTicks::UNDEFINED 10405742078868                       # Cumulative time (in ticks) in various power states (Tick)
board.cache_hierarchy.ruby_system.dma_controllers2.power_state.pwrStateResidencyTicks::UNDEFINED 10405742078868                       # Cumulative time (in ticks) in various power states (Tick)
board.cache_hierarchy.ruby_system.l1_controllers0.delayHistogram::samples       268658                       # delay_histogram (Unspecified)
board.cache_hierarchy.ruby_system.l1_controllers0.delayHistogram::0       268658    100.00%    100.00% # delay_histogram (Unspecified)
board.cache_hierarchy.ruby_system.l1_controllers0.delayHistogram::total       268658                       # delay_histogram (Unspecified)
board.cache_hierarchy.ruby_system.l1_controllers0.L1Dcache.m_demand_hits      3764720                       # Number of cache demand hits (Unspecified)
board.cache_hierarchy.ruby_system.l1_controllers0.L1Dcache.m_demand_misses        41887                       # Number of cache demand misses (Unspecified)
board.cache_hierarchy.ruby_system.l1_controllers0.L1Dcache.m_demand_accesses      3806607                       # Number of cache demand accesses (Unspecified)
board.cache_hierarchy.ruby_system.l1_controllers0.L1Icache.m_demand_hits     21497592                       # Number of cache demand hits (Unspecified)
board.cache_hierarchy.ruby_system.l1_controllers0.L1Icache.m_demand_misses       169133                       # Number of cache demand misses (Unspecified)
board.cache_hierarchy.ruby_system.l1_controllers0.L1Icache.m_demand_accesses     21666725                       # Number of cache demand accesses (Unspecified)
board.cache_hierarchy.ruby_system.l1_controllers0.mandatoryQueue.m_msg_count     25473332                       # Number of messages passed the buffer (Count)
board.cache_hierarchy.ruby_system.l1_controllers0.mandatoryQueue.m_buf_msgs     0.928532                       # Average number of messages in buffer ((Count/Tick))
board.cache_hierarchy.ruby_system.l1_controllers0.mandatoryQueue.m_stall_time       129270                       # Total number of ticks messages were stalled in this buffer (Tick)
board.cache_hierarchy.ruby_system.l1_controllers0.mandatoryQueue.m_stall_count            1                       # Number of times messages were stalled (Count)
board.cache_hierarchy.ruby_system.l1_controllers0.mandatoryQueue.m_avg_stall_time     0.005075                       # Average stall ticks per message ((Tick/Count))
board.cache_hierarchy.ruby_system.l1_controllers0.power_state.pwrStateResidencyTicks::UNDEFINED 10405742078868                       # Cumulative time (in ticks) in various power states (Tick)
board.cache_hierarchy.ruby_system.l1_controllers0.prefetcher.RubyPrefetcher.numMissObserved            0                       # Number of misses observed (Unspecified)
board.cache_hierarchy.ruby_system.l1_controllers0.prefetcher.RubyPrefetcher.numAllocatedStreams            0                       # Number of streams allocated for prefetching (Unspecified)
board.cache_hierarchy.ruby_system.l1_controllers0.prefetcher.RubyPrefetcher.numPrefetchRequested            0                       # Number of prefetch requests made (Unspecified)
board.cache_hierarchy.ruby_system.l1_controllers0.prefetcher.RubyPrefetcher.numHits            0                       # Number of prefetched blocks accessed (for the first time) (Unspecified)
board.cache_hierarchy.ruby_system.l1_controllers0.prefetcher.RubyPrefetcher.numPartialHits            0                       # Number of misses observed for a block being prefetched (Unspecified)
board.cache_hierarchy.ruby_system.l1_controllers0.prefetcher.RubyPrefetcher.numPagesCrossed            0                       # Number of prefetches across pages (Unspecified)
board.cache_hierarchy.ruby_system.l1_controllers0.prefetcher.RubyPrefetcher.numMissedPrefetchedBlocks            0                       # Number of misses for blocks that were prefetched, yet missed (Unspecified)
board.cache_hierarchy.ruby_system.l1_controllers0.requestFromL1Cache.m_msg_count       247462                       # Number of messages passed the buffer (Count)
board.cache_hierarchy.ruby_system.l1_controllers0.requestFromL1Cache.m_buf_msgs     0.000361                       # Average number of messages in buffer ((Count/Tick))
board.cache_hierarchy.ruby_system.l1_controllers0.requestToL1Cache.m_msg_count        21196                       # Number of messages passed the buffer (Count)
board.cache_hierarchy.ruby_system.l1_controllers0.requestToL1Cache.m_buf_msgs     0.000015                       # Average number of messages in buffer ((Count/Tick))
board.cache_hierarchy.ruby_system.l1_controllers0.responseFromL1Cache.m_msg_count         3183                       # Number of messages passed the buffer (Count)
board.cache_hierarchy.ruby_system.l1_controllers0.responseFromL1Cache.m_buf_msgs     0.000005                       # Average number of messages in buffer ((Count/Tick))
board.cache_hierarchy.ruby_system.l1_controllers0.responseToL1Cache.m_buf_msgs 151567.287593                       # Average number of messages in buffer ((Count/Tick))
board.cache_hierarchy.ruby_system.l1_controllers0.rspDataFromL1Cache.m_msg_count        21196                       # Number of messages passed the buffer (Count)
board.cache_hierarchy.ruby_system.l1_controllers0.rspDataFromL1Cache.m_buf_msgs     0.000031                       # Average number of messages in buffer ((Count/Tick))
board.cache_hierarchy.ruby_system.l1_controllers0.rspDataToL1Cache.m_msg_count       247462                       # Number of messages passed the buffer (Count)
board.cache_hierarchy.ruby_system.l1_controllers0.rspDataToL1Cache.m_buf_msgs     0.000180                       # Average number of messages in buffer ((Count/Tick))
board.cache_hierarchy.ruby_system.l1_controllers0.sequencer.power_state.pwrStateResidencyTicks::UNDEFINED 10405742078868                       # Cumulative time (in ticks) in various power states (Tick)
board.cache_hierarchy.ruby_system.l1_controllers0.unblockFromL1Cache.m_msg_count        41887                       # Number of messages passed the buffer (Count)
board.cache_hierarchy.ruby_system.l1_controllers0.unblockFromL1Cache.m_buf_msgs     0.000031                       # Average number of messages in buffer ((Count/Tick))
board.cache_hierarchy.ruby_system.l1_controllers1.delayHistogram::samples          640                       # delay_histogram (Unspecified)
board.cache_hierarchy.ruby_system.l1_controllers1.delayHistogram::mean     0.893750                       # delay_histogram (Unspecified)
board.cache_hierarchy.ruby_system.l1_controllers1.delayHistogram::stdev     1.338473                       # delay_histogram (Unspecified)
board.cache_hierarchy.ruby_system.l1_controllers1.delayHistogram::0          412     64.38%     64.38% # delay_histogram (Unspecified)
board.cache_hierarchy.ruby_system.l1_controllers1.delayHistogram::2          176     27.50%     91.88% # delay_histogram (Unspecified)
board.cache_hierarchy.ruby_system.l1_controllers1.delayHistogram::4           46      7.19%     99.06% # delay_histogram (Unspecified)
board.cache_hierarchy.ruby_system.l1_controllers1.delayHistogram::6            6      0.94%    100.00% # delay_histogram (Unspecified)
board.cache_hierarchy.ruby_system.l1_controllers1.delayHistogram::total          640                       # delay_histogram (Unspecified)
board.cache_hierarchy.ruby_system.l1_controllers1.L1Dcache.m_demand_hits          384                       # Number of cache demand hits (Unspecified)
board.cache_hierarchy.ruby_system.l1_controllers1.L1Dcache.m_demand_misses          640                       # Number of cache demand misses (Unspecified)
board.cache_hierarchy.ruby_system.l1_controllers1.L1Dcache.m_demand_accesses         1024                       # Number of cache demand accesses (Unspecified)
board.cache_hierarchy.ruby_system.l1_controllers1.L1Icache.m_demand_hits            0                       # Number of cache demand hits (Unspecified)
board.cache_hierarchy.ruby_system.l1_controllers1.L1Icache.m_demand_misses            0                       # Number of cache demand misses (Unspecified)
board.cache_hierarchy.ruby_system.l1_controllers1.L1Icache.m_demand_accesses            0                       # Number of cache demand accesses (Unspecified)
board.cache_hierarchy.ruby_system.l1_controllers1.mandatoryQueue.m_msg_count         1024                       # Number of messages passed the buffer (Count)
board.cache_hierarchy.ruby_system.l1_controllers1.mandatoryQueue.m_buf_msgs     0.000206                       # Average number of messages in buffer ((Count/Tick))
board.cache_hierarchy.ruby_system.l1_controllers1.power_state.pwrStateResidencyTicks::UNDEFINED 10405742078868                       # Cumulative time (in ticks) in various power states (Tick)
board.cache_hierarchy.ruby_system.l1_controllers1.prefetcher.RubyPrefetcher.numMissObserved            0                       # Number of misses observed (Unspecified)
board.cache_hierarchy.ruby_system.l1_controllers1.prefetcher.RubyPrefetcher.numAllocatedStreams            0                       # Number of streams allocated for prefetching (Unspecified)
board.cache_hierarchy.ruby_system.l1_controllers1.prefetcher.RubyPrefetcher.numPrefetchRequested            0                       # Number of prefetch requests made (Unspecified)
board.cache_hierarchy.ruby_system.l1_controllers1.prefetcher.RubyPrefetcher.numHits            0                       # Number of prefetched blocks accessed (for the first time) (Unspecified)
board.cache_hierarchy.ruby_system.l1_controllers1.prefetcher.RubyPrefetcher.numPartialHits            0                       # Number of misses observed for a block being prefetched (Unspecified)
board.cache_hierarchy.ruby_system.l1_controllers1.prefetcher.RubyPrefetcher.numPagesCrossed            0                       # Number of prefetches across pages (Unspecified)
board.cache_hierarchy.ruby_system.l1_controllers1.prefetcher.RubyPrefetcher.numMissedPrefetchedBlocks            0                       # Number of misses for blocks that were prefetched, yet missed (Unspecified)
board.cache_hierarchy.ruby_system.l1_controllers1.requestFromL1Cache.m_msg_count          640                       # Number of messages passed the buffer (Count)
board.cache_hierarchy.ruby_system.l1_controllers1.requestFromL1Cache.m_buf_msgs     0.000254                       # Average number of messages in buffer ((Count/Tick))
board.cache_hierarchy.ruby_system.l1_controllers1.responseToL1Cache.m_buf_msgs     1.126266                       # Average number of messages in buffer ((Count/Tick))
board.cache_hierarchy.ruby_system.l1_controllers1.rspDataToL1Cache.m_msg_count          640                       # Number of messages passed the buffer (Count)
board.cache_hierarchy.ruby_system.l1_controllers1.rspDataToL1Cache.m_buf_msgs     0.000000                       # Average number of messages in buffer ((Count/Tick))
board.cache_hierarchy.ruby_system.l1_controllers1.sequencer.power_state.pwrStateResidencyTicks::UNDEFINED 10405742078868                       # Cumulative time (in ticks) in various power states (Tick)
board.cache_hierarchy.ruby_system.l1_controllers1.unblockFromL1Cache.m_msg_count          640                       # Number of messages passed the buffer (Count)
board.cache_hierarchy.ruby_system.l1_controllers1.unblockFromL1Cache.m_buf_msgs     0.000000                       # Average number of messages in buffer ((Count/Tick))
board.cache_hierarchy.ruby_system.l2_controllers.fullyBusyCycles            6                       # cycles for which number of transistions == max transitions (Unspecified)
board.cache_hierarchy.ruby_system.l2_controllers.delayHistogram::samples       411311                       # delay_histogram (Unspecified)
board.cache_hierarchy.ruby_system.l2_controllers.delayHistogram::mean     0.356052                       # delay_histogram (Unspecified)
board.cache_hierarchy.ruby_system.l2_controllers.delayHistogram::stdev     1.727130                       # delay_histogram (Unspecified)
board.cache_hierarchy.ruby_system.l2_controllers.delayHistogram::0-7       393649     95.71%     95.71% # delay_histogram (Unspecified)
board.cache_hierarchy.ruby_system.l2_controllers.delayHistogram::8-15        17476      4.25%     99.95% # delay_histogram (Unspecified)
board.cache_hierarchy.ruby_system.l2_controllers.delayHistogram::16-23          107      0.03%     99.98% # delay_histogram (Unspecified)
board.cache_hierarchy.ruby_system.l2_controllers.delayHistogram::24-31           28      0.01%     99.99% # delay_histogram (Unspecified)
board.cache_hierarchy.ruby_system.l2_controllers.delayHistogram::32-39           22      0.01%     99.99% # delay_histogram (Unspecified)
board.cache_hierarchy.ruby_system.l2_controllers.delayHistogram::40-47           18      0.00%    100.00% # delay_histogram (Unspecified)
board.cache_hierarchy.ruby_system.l2_controllers.delayHistogram::48-55           11      0.00%    100.00% # delay_histogram (Unspecified)
board.cache_hierarchy.ruby_system.l2_controllers.delayHistogram::total       411311                       # delay_histogram (Unspecified)
board.cache_hierarchy.ruby_system.l2_controllers.DirRequestFromL2Cache.m_msg_count        49711                       # Number of messages passed the buffer (Count)
board.cache_hierarchy.ruby_system.l2_controllers.DirRequestFromL2Cache.m_buf_msgs     0.010872                       # Average number of messages in buffer ((Count/Tick))
board.cache_hierarchy.ruby_system.l2_controllers.L1RequestFromL2Cache.m_msg_count        21196                       # Number of messages passed the buffer (Count)
board.cache_hierarchy.ruby_system.l2_controllers.L1RequestFromL2Cache.m_buf_msgs     0.004636                       # Average number of messages in buffer ((Count/Tick))
board.cache_hierarchy.ruby_system.l2_controllers.L1RequestToL2Cache.m_msg_count       248102                       # Number of messages passed the buffer (Count)
board.cache_hierarchy.ruby_system.l2_controllers.L1RequestToL2Cache.m_buf_msgs     0.000181                       # Average number of messages in buffer ((Count/Tick))
board.cache_hierarchy.ruby_system.l2_controllers.L2cache.m_demand_hits       161949                       # Number of cache demand hits (Unspecified)
board.cache_hierarchy.ruby_system.l2_controllers.L2cache.m_demand_misses        49711                       # Number of cache demand misses (Unspecified)
board.cache_hierarchy.ruby_system.l2_controllers.L2cache.m_demand_accesses       211660                       # Number of cache demand accesses (Unspecified)
board.cache_hierarchy.ruby_system.l2_controllers.power_state.pwrStateResidencyTicks::UNDEFINED 10405742078868                       # Cumulative time (in ticks) in various power states (Tick)
board.cache_hierarchy.ruby_system.l2_controllers.responseFromL2Cache.m_msg_count       211660                       # Number of messages passed the buffer (Count)
board.cache_hierarchy.ruby_system.l2_controllers.responseFromL2Cache.m_buf_msgs     0.034485                       # Average number of messages in buffer ((Count/Tick))
[...]
board.processor.switch.core.commitStats0.numFpInsts        77668                       # Number of float instructions (Count)
board.processor.switch.core.commitStats0.numIntInsts     39957685                       # Number of integer instructions (Count)
board.processor.switch.core.commitStats0.numLoadInsts      2271508                       # Number of load instructions (Count)
board.processor.switch.core.commitStats0.numStoreInsts      1528495                       # Number of store instructions (Count)
board.processor.switch.core.commitStats0.numVecInsts            0                       # Number of vector instructions (Count)
board.processor.switch.core.commitStats0.committedInstType::No_OpClass       141062      0.35%      0.35% # Class of committed instruction. (Count)
board.processor.switch.core.commitStats0.committedInstType::IntAlu     36556383     89.99%     90.33% # Class of committed instruction. (Count)
board.processor.switch.core.commitStats0.committedInstType::IntMult        19865      0.05%     90.38% # Class of committed instruction. (Count)
board.processor.switch.core.commitStats0.committedInstType::IntDiv        61142      0.15%     90.53% # Class of committed instruction. (Count)
board.processor.switch.core.commitStats0.committedInstType::FloatAdd         5631      0.01%     90.55% # Class of committed instruction. (Count)
board.processor.switch.core.commitStats0.committedInstType::FloatCmp            0      0.00%     90.55% # Class of committed instruction. (Count)
board.processor.switch.core.commitStats0.committedInstType::FloatCvt         1360      0.00%     90.55% # Class of committed instruction. (Count)
board.processor.switch.core.commitStats0.committedInstType::FloatMult            0      0.00%     90.55% # Class of committed instruction. (Count)
board.processor.switch.core.commitStats0.committedInstType::FloatMultAcc            0      0.00%     90.55% # Class of committed instruction. (Count)
board.processor.switch.core.commitStats0.committedInstType::FloatDiv            0      0.00%     90.55% # Class of committed instruction. (Count)
board.processor.switch.core.commitStats0.committedInstType::FloatMisc            0      0.00%     90.55% # Class of committed instruction. (Count)
board.processor.switch.core.commitStats0.committedInstType::FloatSqrt            0      0.00%     90.55% # Class of committed instruction. (Count)
board.processor.switch.core.commitStats0.committedInstType::SimdAdd         5426      0.01%     90.56% # Class of committed instruction. (Count)
board.processor.switch.core.commitStats0.committedInstType::SimdAddAcc            0      0.00%     90.56% # Class of committed instruction. (Count)
board.processor.switch.core.commitStats0.committedInstType::SimdAlu        10743      0.03%     90.59% # Class of committed instruction. (Count)
board.processor.switch.core.commitStats0.committedInstType::SimdCmp           84      0.00%     90.59% # Class of committed instruction. (Count)
board.processor.switch.core.commitStats0.committedInstType::SimdCvt        11620      0.03%     90.62% # Class of committed instruction. (Count)
board.processor.switch.core.commitStats0.committedInstType::SimdMisc        11112      0.03%     90.64% # Class of committed instruction. (Count)
board.processor.switch.core.commitStats0.committedInstType::SimdMult            0      0.00%     90.64% # Class of committed instruction. (Count)
board.processor.switch.core.commitStats0.committedInstType::SimdMultAcc            0      0.00%     90.64% # Class of committed instruction. (Count)
board.processor.switch.core.commitStats0.committedInstType::SimdMatMultAcc            0      0.00%     90.64% # Class of committed instruction. (Count)
board.processor.switch.core.commitStats0.committedInstType::SimdShift          473      0.00%     90.65% # Class of committed instruction. (Count)
board.processor.switch.core.commitStats0.committedInstType::SimdShiftAcc            0      0.00%     90.65% # Class of committed instruction. (Count)
board.processor.switch.core.commitStats0.committedInstType::SimdDiv            0      0.00%     90.65% # Class of committed instruction. (Count)
board.processor.switch.core.commitStats0.committedInstType::SimdSqrt            0      0.00%     90.65% # Class of committed instruction. (Count)
board.processor.switch.core.commitStats0.committedInstType::SimdFloatAdd            0      0.00%     90.65% # Class of committed instruction. (Count)
board.processor.switch.core.commitStats0.committedInstType::SimdFloatAlu            0      0.00%     90.65% # Class of committed instruction. (Count)
board.processor.switch.core.commitStats0.committedInstType::SimdFloatCmp            0      0.00%     90.65% # Class of committed instruction. (Count)
board.processor.switch.core.commitStats0.committedInstType::SimdFloatCvt            0      0.00%     90.65% # Class of committed instruction. (Count)
board.processor.switch.core.commitStats0.committedInstType::SimdFloatDiv            0      0.00%     90.65% # Class of committed instruction. (Count)
board.processor.switch.core.commitStats0.committedInstType::SimdFloatMisc            0      0.00%     90.65% # Class of committed instruction. (Count)
board.processor.switch.core.commitStats0.committedInstType::SimdFloatMult            0      0.00%     90.65% # Class of committed instruction. (Count)
board.processor.switch.core.commitStats0.committedInstType::SimdFloatMultAcc            0      0.00%     90.65% # Class of committed instruction. (Count)
board.processor.switch.core.commitStats0.committedInstType::SimdFloatMatMultAcc            0      0.00%     90.65% # Class of committed instruction. (Count)
board.processor.switch.core.commitStats0.committedInstType::SimdFloatSqrt            0      0.00%     90.65% # Class of committed instruction. (Count)
board.processor.switch.core.commitStats0.committedInstType::SimdReduceAdd            0      0.00%     90.65% # Class of committed instruction. (Count)
board.processor.switch.core.commitStats0.committedInstType::SimdReduceAlu            0      0.00%     90.65% # Class of committed instruction. (Count)
board.processor.switch.core.commitStats0.committedInstType::SimdReduceCmp            0      0.00%     90.65% # Class of committed instruction. (Count)
board.processor.switch.core.commitStats0.committedInstType::SimdFloatReduceAdd            0      0.00%     90.65% # Class of committed instruction. (Count)
board.processor.switch.core.commitStats0.committedInstType::SimdFloatReduceCmp            0      0.00%     90.65% # Class of committed instruction. (Count)
board.processor.switch.core.commitStats0.committedInstType::SimdAes            0      0.00%     90.65% # Class of committed instruction. (Count)
board.processor.switch.core.commitStats0.committedInstType::SimdAesMix            0      0.00%     90.65% # Class of committed instruction. (Count)
board.processor.switch.core.commitStats0.committedInstType::SimdSha1Hash            0      0.00%     90.65% # Class of committed instruction. (Count)
board.processor.switch.core.commitStats0.committedInstType::SimdSha1Hash2            0      0.00%     90.65% # Class of committed instruction. (Count)
board.processor.switch.core.commitStats0.committedInstType::SimdSha256Hash            0      0.00%     90.65% # Class of committed instruction. (Count)
board.processor.switch.core.commitStats0.committedInstType::SimdSha256Hash2            0      0.00%     90.65% # Class of committed instruction. (Count)
board.processor.switch.core.commitStats0.committedInstType::SimdShaSigma2            0      0.00%     90.65% # Class of committed instruction. (Count)
board.processor.switch.core.commitStats0.committedInstType::SimdShaSigma3            0      0.00%     90.65% # Class of committed instruction. (Count)
board.processor.switch.core.commitStats0.committedInstType::SimdPredAlu            0      0.00%     90.65% # Class of committed instruction. (Count)
board.processor.switch.core.commitStats0.committedInstType::Matrix            0      0.00%     90.65% # Class of committed instruction. (Count)
board.processor.switch.core.commitStats0.committedInstType::MatrixMov            0      0.00%     90.65% # Class of committed instruction. (Count)
board.processor.switch.core.commitStats0.committedInstType::MatrixOP            0      0.00%     90.65% # Class of committed instruction. (Count)
board.processor.switch.core.commitStats0.committedInstType::MemRead      2257046      5.56%     96.20% # Class of committed instruction. (Count)
board.processor.switch.core.commitStats0.committedInstType::MemWrite      1514406      3.73%     99.93% # Class of committed instruction. (Count)
board.processor.switch.core.commitStats0.committedInstType::FloatMemRead        14462      0.04%     99.97% # Class of committed instruction. (Count)
board.processor.switch.core.commitStats0.committedInstType::FloatMemWrite        14089      0.03%    100.00% # Class of committed instruction. (Count)
board.processor.switch.core.commitStats0.committedInstType::IprAccess            0      0.00%    100.00% # Class of committed instruction. (Count)
board.processor.switch.core.commitStats0.committedInstType::InstPrefetch            0      0.00%    100.00% # Class of committed instruction. (Count)
board.processor.switch.core.commitStats0.committedInstType::VectorUnitStrideLoad            0      0.00%    100.00% # Class of committed instruction. (Count)
board.processor.switch.core.commitStats0.committedInstType::VectorUnitStrideStore            0      0.00%    100.00% # Class of committed instruction. (Count)
board.processor.switch.core.commitStats0.committedInstType::VectorUnitStrideMaskLoad            0      0.00%    100.00% # Class of committed instruction. (Count)
board.processor.switch.core.commitStats0.committedInstType::VectorUnitStrideMaskStore            0      0.00%    100.00% # Class of committed instruction. (Count)
board.processor.switch.core.commitStats0.committedInstType::VectorStridedLoad            0      0.00%    100.00% # Class of committed instruction. (Count)
board.processor.switch.core.commitStats0.committedInstType::VectorStridedStore            0      0.00%    100.00% # Class of committed instruction. (Count)
board.processor.switch.core.commitStats0.committedInstType::VectorIndexedLoad            0      0.00%    100.00% # Class of committed instruction. (Count)
board.processor.switch.core.commitStats0.committedInstType::VectorIndexedStore            0      0.00%    100.00% # Class of committed instruction. (Count)
board.processor.switch.core.commitStats0.committedInstType::VectorUnitStrideFaultOnlyFirstLoad            0      0.00%    100.00% # Class of committed instruction. (Count)
board.processor.switch.core.commitStats0.committedInstType::VectorWholeRegisterLoad            0      0.00%    100.00% # Class of committed instruction. (Count)
board.processor.switch.core.commitStats0.committedInstType::VectorWholeRegisterStore            0      0.00%    100.00% # Class of committed instruction. (Count)
board.processor.switch.core.commitStats0.committedInstType::VectorIntegerArith            0      0.00%    100.00% # Class of committed instruction. (Count)
board.processor.switch.core.commitStats0.committedInstType::VectorFloatArith            0      0.00%    100.00% # Class of committed instruction. (Count)
board.processor.switch.core.commitStats0.committedInstType::VectorFloatConvert            0      0.00%    100.00% # Class of committed instruction. (Count)
board.processor.switch.core.commitStats0.committedInstType::VectorIntegerReduce            0      0.00%    100.00% # Class of committed instruction. (Count)
board.processor.switch.core.commitStats0.committedInstType::VectorFloatReduce            0      0.00%    100.00% # Class of committed instruction. (Count)
board.processor.switch.core.commitStats0.committedInstType::VectorMisc            0      0.00%    100.00% # Class of committed instruction. (Count)
board.processor.switch.core.commitStats0.committedInstType::VectorIntegerExtension            0      0.00%    100.00% # Class of committed instruction. (Count)
board.processor.switch.core.commitStats0.committedInstType::VectorConfig            0      0.00%    100.00% # Class of committed instruction. (Count)
board.processor.switch.core.commitStats0.committedInstType::total     40624904                       # Class of committed instruction. (Count)
board.processor.switch.core.commitStats0.committedControl::IsControl      7940197                       # Class of control type instructions committed (Count)
board.processor.switch.core.commitStats0.committedControl::IsDirectControl      7689965                       # Class of control type instructions committed (Count)
board.processor.switch.core.commitStats0.committedControl::IsIndirectControl       248548                       # Class of control type instructions committed (Count)
board.processor.switch.core.commitStats0.committedControl::IsCondControl      7315393                       # Class of control type instructions committed (Count)
board.processor.switch.core.commitStats0.committedControl::IsUncondControl       624467                       # Class of control type instructions committed (Count)
board.processor.switch.core.commitStats0.committedControl::IsCall       248381                       # Class of control type instructions committed (Count)
board.processor.switch.core.commitStats0.committedControl::IsReturn       243567                       # Class of control type instructions committed (Count)
board.processor.switch.core.exec_context.thread_0.numMatAluAccesses            0                       # Number of matrix alu accesses (Count)
board.processor.switch.core.exec_context.thread_0.numCallsReturns       491948                       # Number of times a function call or return occured (Count)
board.processor.switch.core.exec_context.thread_0.numMatInsts            0                       # Number of matrix instructions (Count)
board.processor.switch.core.exec_context.thread_0.numIdleCycles            0                       # Number of idle cycles (Cycle)
board.processor.switch.core.exec_context.thread_0.numBusyCycles   1371708603                       # Number of busy cycles (Cycle)
board.processor.switch.core.exec_context.thread_0.notIdleFraction            1                       # Percentage of non-idle cycles (Ratio)
board.processor.switch.core.exec_context.thread_0.idleFraction            0                       # Percentage of idle cycles (Ratio)
board.processor.switch.core.executeStats0.numInsts            0                       # Number of executed instructions (Count)
board.processor.switch.core.executeStats0.numNop            0                       # Number of nop insts executed (Count)
board.processor.switch.core.executeStats0.numBranches            0                       # Number of branches executed (Count)
board.processor.switch.core.executeStats0.numLoadInsts            0                       # Number of load instructions executed (Count)
board.processor.switch.core.executeStats0.numStoreInsts      3800003                       # Number of stores executed (Count)
board.processor.switch.core.executeStats0.instRate            0                       # Inst execution rate ((Count/Cycle))
board.processor.switch.core.executeStats0.numFpAluAccesses        77668                       # Number of float alu accesses (Count)
board.processor.switch.core.executeStats0.numFpRegReads       106295                       # Number of times the floating registers were read (Count)
board.processor.switch.core.executeStats0.numFpRegWrites        56154                       # Number of times the floating registers were written (Count)
board.processor.switch.core.executeStats0.numIntAluAccesses     39957685                       # Number of integer alu accesses (Count)
board.processor.switch.core.executeStats0.numIntRegReads     40734766                       # Number of times the integer registers were read (Count)
board.processor.switch.core.executeStats0.numIntRegWrites     30078739                       # Number of times the integer registers were written (Count)
board.processor.switch.core.executeStats0.numMemRefs      3800003                       # Number of memory refs (Count)
board.processor.switch.core.executeStats0.numMiscRegReads     18714766                       # Number of times the Misc registers were read (Count)
board.processor.switch.core.executeStats0.numMiscRegWrites        27140                       # Number of times the Misc registers were written (Count)
board.processor.switch.core.executeStats0.numVecAluAccesses            0                       # Number of vector alu accesses (Count)
board.processor.switch.core.executeStats0.numDiscardedOps            0                       # Number of ops (including micro ops) which were discarded before commit (Count)
board.processor.switch.core.fetchStats0.numInsts     19307893                       # Number of instructions fetched (thread level) (Count)
board.processor.switch.core.fetchStats0.numOps     40624904                       # Number of ops (including micro ops) fetched (thread level) (Count)
board.processor.switch.core.fetchStats0.fetchRate     0.014076                       # Number of inst fetches per cycle ((Count/Cycle))
board.processor.switch.core.fetchStats0.numBranches      7940197                       # Number of branches fetched (Count)
board.processor.switch.core.fetchStats0.branchRate     0.005789                       # Number of branch fetches per cycle (Ratio)
board.processor.switch.core.fetchStats0.numFetchSuspends            0                       # Number of times Execute suspended instruction fetching (Count)
board.processor.switch.core.mmu.dtb.rdAccesses      2272209                       # TLB accesses on read requests (Count)
board.processor.switch.core.mmu.dtb.wrAccesses      1528364                       # TLB accesses on write requests (Count)
board.processor.switch.core.mmu.dtb.rdMisses         1234                       # TLB misses on read requests (Count)
board.processor.switch.core.mmu.dtb.wrMisses          259                       # TLB misses on write requests (Count)
board.processor.switch.core.mmu.dtb.walker.power_state.pwrStateResidencyTicks::UNDEFINED 10405742078868                       # Cumulative time (in ticks) in various power states (Tick)
board.processor.switch.core.mmu.itb.rdAccesses            0                       # TLB accesses on read requests (Count)
board.processor.switch.core.mmu.itb.wrAccesses     21667284                       # TLB accesses on write requests (Count)
board.processor.switch.core.mmu.itb.rdMisses            0                       # TLB misses on read requests (Count)
board.processor.switch.core.mmu.itb.wrMisses          559                       # TLB misses on write requests (Count)
board.processor.switch.core.mmu.itb.walker.power_state.pwrStateResidencyTicks::UNDEFINED 10405742078868                       # Cumulative time (in ticks) in various power states (Tick)
board.processor.switch.core.power_state.pwrStateResidencyTicks::OFF 10405742078868                       # Cumulative time (in ticks) in various power states (Tick)
board.processor.switch.core.thread_0.numInsts            0                       # Number of Instructions committed (Count)
board.processor.switch.core.thread_0.numOps            0                       # Number of Ops committed (Count)
board.processor.switch.core.thread_0.numMemRefs            0                       # Number of Memory References (Count)
board.workload.inst.arm                             0                       # number of arm instructions executed (Count)
board.workload.inst.quiesce                         0                       # number of quiesce instructions executed (Count)

---------- End Simulation Statistics   ----------
