
---------- Begin Simulation Statistics ----------
simSeconds                                   0.732898                       # Number of seconds simulated (Second)
simTicks                                 732897698229                       # Number of ticks simulated (Tick)
finalTick                                11183668021565                       # Number of ticks from beginning of simulation (restored from checkpoints and never reset) (Tick)
simFreq                                  1000000000000                       # The number of ticks per simulated second ((Tick/Second))
hostSeconds                                     50.97                       # Real time elapsed on the host (Second)
hostTickRate                              14378479459                       # The number of ticks simulated per host second (ticks/s) ((Tick/Second))
hostMemory                                    4832224                       # Number of bytes of host memory used (Byte)
simInsts                                     24426869                       # Number of instructions simulated (Count)
simOps                                       53240123                       # Number of ops (including micro ops) simulated (Count)
hostInstRate                                   479222                       # Simulator instruction rate (inst/s) ((Count/Second))
hostOpRate                                    1044499                       # Simulator op (including micro ops) rate (op/s) ((Count/Second))
board.cache_hierarchy.ruby_system.delayHistogram::bucket_size          128                       # delay histogram for all message (Unspecified)
board.cache_hierarchy.ruby_system.delayHistogram::max_bucket         1279                       # delay histogram for all message (Unspecified)
board.cache_hierarchy.ruby_system.delayHistogram::samples      1102389                       # delay histogram for all message (Unspecified)
board.cache_hierarchy.ruby_system.delayHistogram::mean     0.326249                       # delay histogram for all message (Unspecified)
board.cache_hierarchy.ruby_system.delayHistogram::stdev     7.848806                       # delay histogram for all message (Unspecified)
board.cache_hierarchy.ruby_system.delayHistogram |     1102194     99.98%     99.98% |          64      0.01%     99.99% |          38      0.00%     99.99% |          33      0.00%     99.99% |           2      0.00%     99.99% |           7      0.00%    100.00% |          19      0.00%    100.00% |          15      0.00%    100.00% |          15      0.00%    100.00% |           2      0.00%    100.00% # delay histogram for all message (Unspecified)
board.cache_hierarchy.ruby_system.delayHistogram::total      1102389                       # delay histogram for all message (Unspecified)
board.cache_hierarchy.ruby_system.m_outstandReqHistSeqr::bucket_size           32                       (Unspecified)
board.cache_hierarchy.ruby_system.m_outstandReqHistSeqr::max_bucket          319                       (Unspecified)
board.cache_hierarchy.ruby_system.m_outstandReqHistSeqr::samples     32155150                       (Unspecified)
board.cache_hierarchy.ruby_system.m_outstandReqHistSeqr::mean     1.002364                       (Unspecified)
board.cache_hierarchy.ruby_system.m_outstandReqHistSeqr::gmean     1.000087                       (Unspecified)
board.cache_hierarchy.ruby_system.m_outstandReqHistSeqr::stdev     0.625128                       (Unspecified)
board.cache_hierarchy.ruby_system.m_outstandReqHistSeqr |    32154669    100.00%    100.00% |          32      0.00%    100.00% |          32      0.00%    100.00% |          32      0.00%    100.00% |          32      0.00%    100.00% |         353      0.00%    100.00% |           0      0.00%    100.00% |           0      0.00%    100.00% |           0      0.00%    100.00% |           0      0.00%    100.00% (Unspecified)
board.cache_hierarchy.ruby_system.m_outstandReqHistSeqr::total     32155150                       (Unspecified)
board.cache_hierarchy.ruby_system.m_latencyHistSeqr::bucket_size          512                       (Unspecified)
board.cache_hierarchy.ruby_system.m_latencyHistSeqr::max_bucket         5119                       (Unspecified)
board.cache_hierarchy.ruby_system.m_latencyHistSeqr::samples     32155150                       (Unspecified)
board.cache_hierarchy.ruby_system.m_latencyHistSeqr::mean    53.682402                       (Unspecified)
board.cache_hierarchy.ruby_system.m_latencyHistSeqr::gmean    51.039239                       (Unspecified)
board.cache_hierarchy.ruby_system.m_latencyHistSeqr::stdev    44.028647                       (Unspecified)
board.cache_hierarchy.ruby_system.m_latencyHistSeqr |    32075802     99.75%     99.75% |       74007      0.23%     99.98% |        4810      0.01%    100.00% |         366      0.00%    100.00% |         163      0.00%    100.00% |           2      0.00%    100.00% |           0      0.00%    100.00% |           0      0.00%    100.00% |           0      0.00%    100.00% |           0      0.00%    100.00% (Unspecified)
board.cache_hierarchy.ruby_system.m_latencyHistSeqr::total     32155150                       (Unspecified)
board.cache_hierarchy.ruby_system.m_hitLatencyHistSeqr::bucket_size            8                       (Unspecified)
board.cache_hierarchy.ruby_system.m_hitLatencyHistSeqr::max_bucket           79                       (Unspecified)
board.cache_hierarchy.ruby_system.m_hitLatencyHistSeqr::samples     31809785                       (Unspecified)
board.cache_hierarchy.ruby_system.m_hitLatencyHistSeqr::mean           50                       (Unspecified)
board.cache_hierarchy.ruby_system.m_hitLatencyHistSeqr::gmean    50.000000                       (Unspecified)
board.cache_hierarchy.ruby_system.m_hitLatencyHistSeqr |           0      0.00%      0.00% |           0      0.00%      0.00% |           0      0.00%      0.00% |           0      0.00%      0.00% |           0      0.00%      0.00% |           0      0.00%      0.00% |    31809785    100.00%    100.00% |           0      0.00%    100.00% |           0      0.00%    100.00% |           0      0.00%    100.00% (Unspecified)
board.cache_hierarchy.ruby_system.m_hitLatencyHistSeqr::total     31809785                       (Unspecified)
board.cache_hierarchy.ruby_system.m_missLatencyHistSeqr::bucket_size          512                       (Unspecified)
board.cache_hierarchy.ruby_system.m_missLatencyHistSeqr::max_bucket         5119                       (Unspecified)
board.cache_hierarchy.ruby_system.m_missLatencyHistSeqr::samples       345365                       (Unspecified)
board.cache_hierarchy.ruby_system.m_missLatencyHistSeqr::mean   392.849414                       (Unspecified)
board.cache_hierarchy.ruby_system.m_missLatencyHistSeqr::gmean   339.457599                       (Unspecified)
board.cache_hierarchy.ruby_system.m_missLatencyHistSeqr::stdev   253.382538                       (Unspecified)
board.cache_hierarchy.ruby_system.m_missLatencyHistSeqr |      266017     77.02%     77.02% |       74007     21.43%     98.45% |        4810      1.39%     99.85% |         366      0.11%     99.95% |         163      0.05%    100.00% |           2      0.00%    100.00% |           0      0.00%    100.00% |           0      0.00%    100.00% |           0      0.00%    100.00% |           0      0.00%    100.00% (Unspecified)
board.cache_hierarchy.ruby_system.m_missLatencyHistSeqr::total       345365                       (Unspecified)
board.cache_hierarchy.ruby_system.delayVCHist.vnet_0::bucket_size          128                       # delay histogram for vnet_0 (Unspecified)
board.cache_hierarchy.ruby_system.delayVCHist.vnet_0::max_bucket         1279                       # delay histogram for vnet_0 (Unspecified)
board.cache_hierarchy.ruby_system.delayVCHist.vnet_0::samples       467922                       # delay histogram for vnet_0 (Unspecified)
board.cache_hierarchy.ruby_system.delayVCHist.vnet_0::mean     0.689638                       # delay histogram for vnet_0 (Unspecified)
board.cache_hierarchy.ruby_system.delayVCHist.vnet_0::stdev    11.774542                       # delay histogram for vnet_0 (Unspecified)
board.cache_hierarchy.ruby_system.delayVCHist.vnet_0 |      467759     99.97%     99.97% |          32      0.01%     99.97% |          38      0.01%     99.98% |          33      0.01%     99.99% |           2      0.00%     99.99% |           7      0.00%     99.99% |          19      0.00%     99.99% |          15      0.00%    100.00% |          15      0.00%    100.00% |           2      0.00%    100.00% # delay histogram for vnet_0 (Unspecified)
board.cache_hierarchy.ruby_system.delayVCHist.vnet_0::total       467922                       # delay histogram for vnet_0 (Unspecified)
board.cache_hierarchy.ruby_system.delayVCHist.vnet_1::bucket_size           16                       # delay histogram for vnet_1 (Unspecified)
board.cache_hierarchy.ruby_system.delayVCHist.vnet_1::max_bucket          159                       # delay histogram for vnet_1 (Unspecified)
board.cache_hierarchy.ruby_system.delayVCHist.vnet_1::samples       597506                       # delay histogram for vnet_1 (Unspecified)
board.cache_hierarchy.ruby_system.delayVCHist.vnet_1::mean     0.061850                       # delay histogram for vnet_1 (Unspecified)
board.cache_hierarchy.ruby_system.delayVCHist.vnet_1::stdev     2.214911                       # delay histogram for vnet_1 (Unspecified)
board.cache_hierarchy.ruby_system.delayVCHist.vnet_1 |      596939     99.91%     99.91% |         140      0.02%     99.93% |         102      0.02%     99.95% |          72      0.01%     99.96% |          81      0.01%     99.97% |          57      0.01%     99.98% |          40      0.01%     99.99% |          43      0.01%     99.99% |          30      0.01%    100.00% |           2      0.00%    100.00% # delay histogram for vnet_1 (Unspecified)
board.cache_hierarchy.ruby_system.delayVCHist.vnet_1::total       597506                       # delay histogram for vnet_1 (Unspecified)
board.cache_hierarchy.ruby_system.delayVCHist.vnet_2::bucket_size            1                       # delay histogram for vnet_2 (Unspecified)
board.cache_hierarchy.ruby_system.delayVCHist.vnet_2::max_bucket            9                       # delay histogram for vnet_2 (Unspecified)
board.cache_hierarchy.ruby_system.delayVCHist.vnet_2::samples        36961                       # delay histogram for vnet_2 (Unspecified)
board.cache_hierarchy.ruby_system.delayVCHist.vnet_2 |       36961    100.00%    100.00% |           0      0.00%    100.00% |           0      0.00%    100.00% |           0      0.00%    100.00% |           0      0.00%    100.00% |           0      0.00%    100.00% |           0      0.00%    100.00% |           0      0.00%    100.00% |           0      0.00%    100.00% |           0      0.00%    100.00% # delay histogram for vnet_2 (Unspecified)
board.cache_hierarchy.ruby_system.delayVCHist.vnet_2::total        36961                       # delay histogram for vnet_2 (Unspecified)
board.cache_hierarchy.ruby_system.Directory_Controller.Fetch |       39898     50.28%     50.28% |       39446     49.72%    100.00% (Unspecified)
board.cache_hierarchy.ruby_system.Directory_Controller.Fetch::total        79344                       (Unspecified)
board.cache_hierarchy.ruby_system.Directory_Controller.Data |       13894     50.34%     50.34% |       13709     49.66%    100.00% (Unspecified)
board.cache_hierarchy.ruby_system.Directory_Controller.Data::total        27603                       (Unspecified)
board.cache_hierarchy.ruby_system.Directory_Controller.Memory_Data |       39958     50.31%     50.31% |       39466     49.69%    100.00% (Unspecified)
board.cache_hierarchy.ruby_system.Directory_Controller.Memory_Data::total        79424                       (Unspecified)
board.cache_hierarchy.ruby_system.Directory_Controller.Memory_Ack |       28429     50.16%     50.16% |       28251     49.84%    100.00% (Unspecified)
board.cache_hierarchy.ruby_system.Directory_Controller.Memory_Ack::total        56680                       (Unspecified)
board.cache_hierarchy.ruby_system.Directory_Controller.DMA_READ |          86     78.18%     78.18% |          24     21.82%    100.00% (Unspecified)
board.cache_hierarchy.ruby_system.Directory_Controller.DMA_READ::total          110                       (Unspecified)
board.cache_hierarchy.ruby_system.Directory_Controller.DMA_WRITE |       14624     50.00%     50.00% |       14624     50.00%    100.00% (Unspecified)
board.cache_hierarchy.ruby_system.Directory_Controller.DMA_WRITE::total        29248                       (Unspecified)
board.cache_hierarchy.ruby_system.Directory_Controller.CleanReplacement |       25996     50.27%     50.27% |       25718     49.73%    100.00% (Unspecified)
board.cache_hierarchy.ruby_system.Directory_Controller.CleanReplacement::total        51714                       (Unspecified)
board.cache_hierarchy.ruby_system.Directory_Controller.I.Fetch |       39898     50.28%     50.28% |       39446     49.72%    100.00% (Unspecified)
board.cache_hierarchy.ruby_system.Directory_Controller.I.Fetch::total        79344                       (Unspecified)
board.cache_hierarchy.ruby_system.Directory_Controller.I.DMA_READ |          60     75.00%     75.00% |          20     25.00%    100.00% (Unspecified)
board.cache_hierarchy.ruby_system.Directory_Controller.I.DMA_READ::total           80                       (Unspecified)
board.cache_hierarchy.ruby_system.Directory_Controller.I.DMA_WRITE |       14535     49.99%     49.99% |       14542     50.01%    100.00% (Unspecified)
board.cache_hierarchy.ruby_system.Directory_Controller.I.DMA_WRITE::total        29077                       (Unspecified)
board.cache_hierarchy.ruby_system.Directory_Controller.ID.Memory_Data |          60     75.00%     75.00% |          20     25.00%    100.00% (Unspecified)
board.cache_hierarchy.ruby_system.Directory_Controller.ID.Memory_Data::total           80                       (Unspecified)
board.cache_hierarchy.ruby_system.Directory_Controller.ID_W.Memory_Ack |       14535     49.99%     49.99% |       14542     50.01%    100.00% (Unspecified)
board.cache_hierarchy.ruby_system.Directory_Controller.ID_W.Memory_Ack::total        29077                       (Unspecified)
board.cache_hierarchy.ruby_system.Directory_Controller.M.Data |       13779     50.28%     50.28% |       13623     49.72%    100.00% (Unspecified)
board.cache_hierarchy.ruby_system.Directory_Controller.M.Data::total        27402                       (Unspecified)
board.cache_hierarchy.ruby_system.Directory_Controller.M.DMA_READ |          26     86.67%     86.67% |           4     13.33%    100.00% (Unspecified)
board.cache_hierarchy.ruby_system.Directory_Controller.M.DMA_READ::total           30                       (Unspecified)
board.cache_hierarchy.ruby_system.Directory_Controller.M.DMA_WRITE |          89     52.05%     52.05% |          82     47.95%    100.00% (Unspecified)
board.cache_hierarchy.ruby_system.Directory_Controller.M.DMA_WRITE::total          171                       (Unspecified)
board.cache_hierarchy.ruby_system.Directory_Controller.M.CleanReplacement |       25996     50.27%     50.27% |       25718     49.73%    100.00% (Unspecified)
board.cache_hierarchy.ruby_system.Directory_Controller.M.CleanReplacement::total        51714                       (Unspecified)
board.cache_hierarchy.ruby_system.Directory_Controller.IM.Memory_Data |       39898     50.28%     50.28% |       39446     49.72%    100.00% (Unspecified)
board.cache_hierarchy.ruby_system.Directory_Controller.IM.Memory_Data::total        79344                       (Unspecified)
board.cache_hierarchy.ruby_system.Directory_Controller.MI.Memory_Ack |       13779     50.28%     50.28% |       13623     49.72%    100.00% (Unspecified)
board.cache_hierarchy.ruby_system.Directory_Controller.MI.Memory_Ack::total        27402                       (Unspecified)
board.cache_hierarchy.ruby_system.Directory_Controller.M_DRD.Data |          26     86.67%     86.67% |           4     13.33%    100.00% (Unspecified)
board.cache_hierarchy.ruby_system.Directory_Controller.M_DRD.Data::total           30                       (Unspecified)
board.cache_hierarchy.ruby_system.Directory_Controller.M_DRDI.Memory_Ack |          26     86.67%     86.67% |           4     13.33%    100.00% (Unspecified)
board.cache_hierarchy.ruby_system.Directory_Controller.M_DRDI.Memory_Ack::total           30                       (Unspecified)
board.cache_hierarchy.ruby_system.Directory_Controller.M_DWR.Data |          89     52.05%     52.05% |          82     47.95%    100.00% (Unspecified)
board.cache_hierarchy.ruby_system.Directory_Controller.M_DWR.Data::total          171                       (Unspecified)
board.cache_hierarchy.ruby_system.Directory_Controller.M_DWRI.Memory_Ack |          89     52.05%     52.05% |          82     47.95%    100.00% (Unspecified)
board.cache_hierarchy.ruby_system.Directory_Controller.M_DWRI.Memory_Ack::total          171                       (Unspecified)
board.cache_hierarchy.ruby_system.DMA_Controller.ReadRequest |         110    100.00%    100.00% |           0      0.00%    100.00% |           0      0.00%    100.00% (Unspecified)
board.cache_hierarchy.ruby_system.DMA_Controller.ReadRequest::total          110                       (Unspecified)
board.cache_hierarchy.ruby_system.DMA_Controller.WriteRequest |       29248    100.00%    100.00% |           0      0.00%    100.00% |           0      0.00%    100.00% (Unspecified)
board.cache_hierarchy.ruby_system.DMA_Controller.WriteRequest::total        29248                       (Unspecified)
board.cache_hierarchy.ruby_system.DMA_Controller.Data |         110    100.00%    100.00% |           0      0.00%    100.00% |           0      0.00%    100.00% (Unspecified)
board.cache_hierarchy.ruby_system.DMA_Controller.Data::total          110                       (Unspecified)
board.cache_hierarchy.ruby_system.DMA_Controller.Ack |       29248    100.00%    100.00% |           0      0.00%    100.00% |           0      0.00%    100.00% (Unspecified)
board.cache_hierarchy.ruby_system.DMA_Controller.Ack::total        29248                       (Unspecified)
board.cache_hierarchy.ruby_system.DMA_Controller.READY.ReadRequest |         110    100.00%    100.00% |           0      0.00%    100.00% |           0      0.00%    100.00% (Unspecified)
board.cache_hierarchy.ruby_system.DMA_Controller.READY.ReadRequest::total          110                       (Unspecified)
board.cache_hierarchy.ruby_system.DMA_Controller.READY.WriteRequest |       29248    100.00%    100.00% |           0      0.00%    100.00% |           0      0.00%    100.00% (Unspecified)
board.cache_hierarchy.ruby_system.DMA_Controller.READY.WriteRequest::total        29248                       (Unspecified)
board.cache_hierarchy.ruby_system.DMA_Controller.BUSY_RD.Data |         110    100.00%    100.00% |           0      0.00%    100.00% |           0      0.00%    100.00% (Unspecified)
board.cache_hierarchy.ruby_system.DMA_Controller.BUSY_RD.Data::total          110                       (Unspecified)
board.cache_hierarchy.ruby_system.DMA_Controller.BUSY_WR.Ack |       29248    100.00%    100.00% |           0      0.00%    100.00% |           0      0.00%    100.00% (Unspecified)
board.cache_hierarchy.ruby_system.DMA_Controller.BUSY_WR.Ack::total        29248                       (Unspecified)
board.cache_hierarchy.ruby_system.L1Cache_Controller.Load |     3257511     99.98%     99.98% |         512      0.02%    100.00% (Unspecified)
board.cache_hierarchy.ruby_system.L1Cache_Controller.Load::total      3258023                       (Unspecified)
board.cache_hierarchy.ruby_system.L1Cache_Controller.Ifetch |    26400411    100.00%    100.00% |           0      0.00%    100.00% (Unspecified)
board.cache_hierarchy.ruby_system.L1Cache_Controller.Ifetch::total     26400411                       (Unspecified)
board.cache_hierarchy.ruby_system.L1Cache_Controller.Store |     2496719    100.00%    100.00% |           0      0.00%    100.00% (Unspecified)
board.cache_hierarchy.ruby_system.L1Cache_Controller.Store::total      2496719                       (Unspecified)
board.cache_hierarchy.ruby_system.L1Cache_Controller.Inv |       36450     98.62%     98.62% |         511      1.38%    100.00% (Unspecified)
board.cache_hierarchy.ruby_system.L1Cache_Controller.Inv::total        36961                       (Unspecified)
board.cache_hierarchy.ruby_system.L1Cache_Controller.L1_Replacement |      340873    100.00%    100.00% |           0      0.00%    100.00% (Unspecified)
board.cache_hierarchy.ruby_system.L1Cache_Controller.L1_Replacement::total       340873                       (Unspecified)
board.cache_hierarchy.ruby_system.L1Cache_Controller.Data_Exclusive |       43843     98.85%     98.85% |         512      1.15%    100.00% (Unspecified)
board.cache_hierarchy.ruby_system.L1Cache_Controller.Data_Exclusive::total        44355                       (Unspecified)
board.cache_hierarchy.ruby_system.L1Cache_Controller.Data_all_Acks |      301010    100.00%    100.00% |           0      0.00%    100.00% (Unspecified)
board.cache_hierarchy.ruby_system.L1Cache_Controller.Data_all_Acks::total       301010                       (Unspecified)
board.cache_hierarchy.ruby_system.L1Cache_Controller.WB_Ack |       56318    100.00%    100.00% |           0      0.00%    100.00% (Unspecified)
board.cache_hierarchy.ruby_system.L1Cache_Controller.WB_Ack::total        56318                       (Unspecified)
board.cache_hierarchy.ruby_system.L1Cache_Controller.NP.Load |       40963     98.77%     98.77% |         512      1.23%    100.00% (Unspecified)
board.cache_hierarchy.ruby_system.L1Cache_Controller.NP.Load::total        41475                       (Unspecified)
board.cache_hierarchy.ruby_system.L1Cache_Controller.NP.Ifetch |      279108    100.00%    100.00% |           0      0.00%    100.00% (Unspecified)
board.cache_hierarchy.ruby_system.L1Cache_Controller.NP.Ifetch::total       279108                       (Unspecified)
board.cache_hierarchy.ruby_system.L1Cache_Controller.NP.Store |       20802    100.00%    100.00% |           0      0.00%    100.00% (Unspecified)
board.cache_hierarchy.ruby_system.L1Cache_Controller.NP.Store::total        20802                       (Unspecified)
board.cache_hierarchy.ruby_system.L1Cache_Controller.NP.Inv |       26982    100.00%    100.00% |           0      0.00%    100.00% (Unspecified)
board.cache_hierarchy.ruby_system.L1Cache_Controller.NP.Inv::total        26982                       (Unspecified)
board.cache_hierarchy.ruby_system.L1Cache_Controller.I.Load |        2880    100.00%    100.00% |           0      0.00%    100.00% (Unspecified)
board.cache_hierarchy.ruby_system.L1Cache_Controller.I.Load::total         2880                       (Unspecified)
board.cache_hierarchy.ruby_system.L1Cache_Controller.I.Ifetch |          18    100.00%    100.00% |           0      0.00%    100.00% (Unspecified)
board.cache_hierarchy.ruby_system.L1Cache_Controller.I.Ifetch::total           18                       (Unspecified)
board.cache_hierarchy.ruby_system.L1Cache_Controller.I.Store |        1082    100.00%    100.00% |           0      0.00%    100.00% (Unspecified)
board.cache_hierarchy.ruby_system.L1Cache_Controller.I.Store::total         1082                       (Unspecified)
board.cache_hierarchy.ruby_system.L1Cache_Controller.I.L1_Replacement |        5458    100.00%    100.00% |           0      0.00%    100.00% (Unspecified)
board.cache_hierarchy.ruby_system.L1Cache_Controller.I.L1_Replacement::total         5458                       (Unspecified)
board.cache_hierarchy.ruby_system.L1Cache_Controller.S.Ifetch |    26121282    100.00%    100.00% |           0      0.00%    100.00% (Unspecified)
board.cache_hierarchy.ruby_system.L1Cache_Controller.S.Ifetch::total     26121282                       (Unspecified)
board.cache_hierarchy.ruby_system.L1Cache_Controller.S.Inv |          29    100.00%    100.00% |           0      0.00%    100.00% (Unspecified)
board.cache_hierarchy.ruby_system.L1Cache_Controller.S.Inv::total           29                       (Unspecified)
board.cache_hierarchy.ruby_system.L1Cache_Controller.S.L1_Replacement |      279097    100.00%    100.00% |           0      0.00%    100.00% (Unspecified)
board.cache_hierarchy.ruby_system.L1Cache_Controller.S.L1_Replacement::total       279097                       (Unspecified)
board.cache_hierarchy.ruby_system.L1Cache_Controller.E.Load |     1101538    100.00%    100.00% |           0      0.00%    100.00% (Unspecified)
board.cache_hierarchy.ruby_system.L1Cache_Controller.E.Load::total      1101538                       (Unspecified)
board.cache_hierarchy.ruby_system.L1Cache_Controller.E.Store |       12397    100.00%    100.00% |           0      0.00%    100.00% (Unspecified)
board.cache_hierarchy.ruby_system.L1Cache_Controller.E.Store::total        12397                       (Unspecified)
board.cache_hierarchy.ruby_system.L1Cache_Controller.E.Inv |        4114     88.95%     88.95% |         511     11.05%    100.00% (Unspecified)
board.cache_hierarchy.ruby_system.L1Cache_Controller.E.Inv::total         4625                       (Unspecified)
board.cache_hierarchy.ruby_system.L1Cache_Controller.E.L1_Replacement |       27309    100.00%    100.00% |           0      0.00%    100.00% (Unspecified)
board.cache_hierarchy.ruby_system.L1Cache_Controller.E.L1_Replacement::total        27309                       (Unspecified)
board.cache_hierarchy.ruby_system.L1Cache_Controller.M.Load |     2112130    100.00%    100.00% |           0      0.00%    100.00% (Unspecified)
board.cache_hierarchy.ruby_system.L1Cache_Controller.M.Load::total      2112130                       (Unspecified)
board.cache_hierarchy.ruby_system.L1Cache_Controller.M.Store |     2462438    100.00%    100.00% |           0      0.00%    100.00% (Unspecified)
board.cache_hierarchy.ruby_system.L1Cache_Controller.M.Store::total      2462438                       (Unspecified)
board.cache_hierarchy.ruby_system.L1Cache_Controller.M.Inv |        5325    100.00%    100.00% |           0      0.00%    100.00% (Unspecified)
board.cache_hierarchy.ruby_system.L1Cache_Controller.M.Inv::total         5325                       (Unspecified)
board.cache_hierarchy.ruby_system.L1Cache_Controller.M.L1_Replacement |       29009    100.00%    100.00% |           0      0.00%    100.00% (Unspecified)
board.cache_hierarchy.ruby_system.L1Cache_Controller.M.L1_Replacement::total        29009                       (Unspecified)
board.cache_hierarchy.ruby_system.L1Cache_Controller.IS.Data_Exclusive |       43843     98.85%     98.85% |         512      1.15%    100.00% (Unspecified)
board.cache_hierarchy.ruby_system.L1Cache_Controller.IS.Data_Exclusive::total        44355                       (Unspecified)
board.cache_hierarchy.ruby_system.L1Cache_Controller.IS.Data_all_Acks |      279126    100.00%    100.00% |           0      0.00%    100.00% (Unspecified)
board.cache_hierarchy.ruby_system.L1Cache_Controller.IS.Data_all_Acks::total       279126                       (Unspecified)
board.cache_hierarchy.ruby_system.L1Cache_Controller.IM.Data_all_Acks |       21884    100.00%    100.00% |           0      0.00%    100.00% (Unspecified)
board.cache_hierarchy.ruby_system.L1Cache_Controller.IM.Data_all_Acks::total        21884                       (Unspecified)
board.cache_hierarchy.ruby_system.L1Cache_Controller.M_I.Ifetch |           3    100.00%    100.00% |           0      0.00%    100.00% (Unspecified)
board.cache_hierarchy.ruby_system.L1Cache_Controller.M_I.Ifetch::total            3                       (Unspecified)
board.cache_hierarchy.ruby_system.L1Cache_Controller.M_I.WB_Ack |       56318    100.00%    100.00% |           0      0.00%    100.00% (Unspecified)
board.cache_hierarchy.ruby_system.L1Cache_Controller.M_I.WB_Ack::total        56318                       (Unspecified)
board.cache_hierarchy.ruby_system.L2Cache_Controller.L1_GET_INSTR       279126      0.00%      0.00% (Unspecified)
board.cache_hierarchy.ruby_system.L2Cache_Controller.L1_GETS        44355      0.00%      0.00% (Unspecified)
board.cache_hierarchy.ruby_system.L2Cache_Controller.L1_GETX        21884      0.00%      0.00% (Unspecified)
board.cache_hierarchy.ruby_system.L2Cache_Controller.L1_PUTX        56318      0.00%      0.00% (Unspecified)
board.cache_hierarchy.ruby_system.L2Cache_Controller.L2_Replacement        22975      0.00%      0.00% (Unspecified)
board.cache_hierarchy.ruby_system.L2Cache_Controller.L2_Replacement_clean        56141      0.00%      0.00% (Unspecified)
board.cache_hierarchy.ruby_system.L2Cache_Controller.Mem_Data        79344      0.00%      0.00% (Unspecified)
board.cache_hierarchy.ruby_system.L2Cache_Controller.Mem_Ack        79317      0.00%      0.00% (Unspecified)
board.cache_hierarchy.ruby_system.L2Cache_Controller.WB_Data         5325      0.00%      0.00% (Unspecified)
board.cache_hierarchy.ruby_system.L2Cache_Controller.Ack_all        31636      0.00%      0.00% (Unspecified)
board.cache_hierarchy.ruby_system.L2Cache_Controller.Exclusive_Unblock        66239      0.00%      0.00% (Unspecified)
board.cache_hierarchy.ruby_system.L2Cache_Controller.MEM_Inv          402      0.00%      0.00% (Unspecified)
board.cache_hierarchy.ruby_system.L2Cache_Controller.NP.L1_GET_INSTR        27138      0.00%      0.00% (Unspecified)
board.cache_hierarchy.ruby_system.L2Cache_Controller.NP.L1_GETS        34147      0.00%      0.00% (Unspecified)
board.cache_hierarchy.ruby_system.L2Cache_Controller.NP.L1_GETX        18059      0.00%      0.00% (Unspecified)
board.cache_hierarchy.ruby_system.L2Cache_Controller.SS.L1_GET_INSTR       251985      0.00%      0.00% (Unspecified)
board.cache_hierarchy.ruby_system.L2Cache_Controller.SS.L2_Replacement_clean        27011      0.00%      0.00% (Unspecified)
board.cache_hierarchy.ruby_system.L2Cache_Controller.M.L1_GET_INSTR            3      0.00%      0.00% (Unspecified)
board.cache_hierarchy.ruby_system.L2Cache_Controller.M.L1_GETS        10208      0.00%      0.00% (Unspecified)
board.cache_hierarchy.ruby_system.L2Cache_Controller.M.L1_GETX         3825      0.00%      0.00% (Unspecified)
board.cache_hierarchy.ruby_system.L2Cache_Controller.M.L2_Replacement        21995      0.00%      0.00% (Unspecified)
board.cache_hierarchy.ruby_system.L2Cache_Controller.M.L2_Replacement_clean        20191      0.00%      0.00% (Unspecified)
board.cache_hierarchy.ruby_system.L2Cache_Controller.M.MEM_Inv          170      0.00%      0.00% (Unspecified)
board.cache_hierarchy.ruby_system.L2Cache_Controller.MT.L1_PUTX        56318      0.00%      0.00% (Unspecified)
board.cache_hierarchy.ruby_system.L2Cache_Controller.MT.L2_Replacement          980      0.00%      0.00% (Unspecified)
board.cache_hierarchy.ruby_system.L2Cache_Controller.MT.L2_Replacement_clean         8939      0.00%      0.00% (Unspecified)
board.cache_hierarchy.ruby_system.L2Cache_Controller.MT.MEM_Inv           31      0.00%      0.00% (Unspecified)
board.cache_hierarchy.ruby_system.L2Cache_Controller.M_I.Mem_Ack        79317      0.00%      0.00% (Unspecified)
board.cache_hierarchy.ruby_system.L2Cache_Controller.M_I.MEM_Inv          170      0.00%      0.00% (Unspecified)
board.cache_hierarchy.ruby_system.L2Cache_Controller.MT_I.WB_Data          898      0.00%      0.00% (Unspecified)
board.cache_hierarchy.ruby_system.L2Cache_Controller.MT_I.Ack_all          113      0.00%      0.00% (Unspecified)
board.cache_hierarchy.ruby_system.L2Cache_Controller.MT_I.MEM_Inv           31      0.00%      0.00% (Unspecified)
board.cache_hierarchy.ruby_system.L2Cache_Controller.MCT_I.WB_Data         4427      0.00%      0.00% (Unspecified)
board.cache_hierarchy.ruby_system.L2Cache_Controller.MCT_I.Ack_all         4512      0.00%      0.00% (Unspecified)
board.cache_hierarchy.ruby_system.L2Cache_Controller.I_I.Ack_all        27011      0.00%      0.00% (Unspecified)
board.cache_hierarchy.ruby_system.L2Cache_Controller.ISS.Mem_Data        34147      0.00%      0.00% (Unspecified)
board.cache_hierarchy.ruby_system.L2Cache_Controller.IS.Mem_Data        27138      0.00%      0.00% (Unspecified)
board.cache_hierarchy.ruby_system.L2Cache_Controller.IM.Mem_Data        18059      0.00%      0.00% (Unspecified)
board.cache_hierarchy.ruby_system.L2Cache_Controller.MT_MB.Exclusive_Unblock        66239      0.00%      0.00% (Unspecified)
board.cache_hierarchy.ruby_system.RequestType.LD.latency_hist_seqr::bucket_size          512                       (Unspecified)
board.cache_hierarchy.ruby_system.RequestType.LD.latency_hist_seqr::max_bucket         5119                       (Unspecified)
board.cache_hierarchy.ruby_system.RequestType.LD.latency_hist_seqr::samples      3258023                       (Unspecified)
board.cache_hierarchy.ruby_system.RequestType.LD.latency_hist_seqr::mean    59.035262                       (Unspecified)
board.cache_hierarchy.ruby_system.RequestType.LD.latency_hist_seqr::gmean    51.765818                       (Unspecified)
board.cache_hierarchy.ruby_system.RequestType.LD.latency_hist_seqr::stdev    84.266067                       (Unspecified)
board.cache_hierarchy.ruby_system.RequestType.LD.latency_hist_seqr |     3223876     98.95%     98.95% |       31463      0.97%     99.92% |        2163      0.07%     99.98% |         356      0.01%     99.99% |         163      0.01%    100.00% |           2      0.00%    100.00% |           0      0.00%    100.00% |           0      0.00%    100.00% |           0      0.00%    100.00% |           0      0.00%    100.00% (Unspecified)
board.cache_hierarchy.ruby_system.RequestType.LD.latency_hist_seqr::total      3258023                       (Unspecified)
board.cache_hierarchy.ruby_system.RequestType.LD.hit_latency_hist_seqr::bucket_size            8                       (Unspecified)
board.cache_hierarchy.ruby_system.RequestType.LD.hit_latency_hist_seqr::max_bucket           79                       (Unspecified)
board.cache_hierarchy.ruby_system.RequestType.LD.hit_latency_hist_seqr::samples      3213668                       (Unspecified)
board.cache_hierarchy.ruby_system.RequestType.LD.hit_latency_hist_seqr::mean           50                       (Unspecified)
board.cache_hierarchy.ruby_system.RequestType.LD.hit_latency_hist_seqr::gmean    50.000000                       (Unspecified)
board.cache_hierarchy.ruby_system.RequestType.LD.hit_latency_hist_seqr |           0      0.00%      0.00% |           0      0.00%      0.00% |           0      0.00%      0.00% |           0      0.00%      0.00% |           0      0.00%      0.00% |           0      0.00%      0.00% |     3213668    100.00%    100.00% |           0      0.00%    100.00% |           0      0.00%    100.00% |           0      0.00%    100.00% (Unspecified)
board.cache_hierarchy.ruby_system.RequestType.LD.hit_latency_hist_seqr::total      3213668                       (Unspecified)
board.cache_hierarchy.ruby_system.RequestType.LD.miss_latency_hist_seqr::bucket_size          512                       (Unspecified)
board.cache_hierarchy.ruby_system.RequestType.LD.miss_latency_hist_seqr::max_bucket         5119                       (Unspecified)
board.cache_hierarchy.ruby_system.RequestType.LD.miss_latency_hist_seqr::samples        44355                       (Unspecified)
board.cache_hierarchy.ruby_system.RequestType.LD.miss_latency_hist_seqr::mean   713.670206                       (Unspecified)
board.cache_hierarchy.ruby_system.RequestType.LD.miss_latency_hist_seqr::gmean   639.937857                       (Unspecified)
board.cache_hierarchy.ruby_system.RequestType.LD.miss_latency_hist_seqr::stdev   295.153172                       (Unspecified)
board.cache_hierarchy.ruby_system.RequestType.LD.miss_latency_hist_seqr |       10208     23.01%     23.01% |       31463     70.93%     93.95% |        2163      4.88%     98.83% |         356      0.80%     99.63% |         163      0.37%    100.00% |           2      0.00%    100.00% |           0      0.00%    100.00% |           0      0.00%    100.00% |           0      0.00%    100.00% |           0      0.00%    100.00% (Unspecified)
board.cache_hierarchy.ruby_system.RequestType.LD.miss_latency_hist_seqr::total        44355                       (Unspecified)
board.cache_hierarchy.ruby_system.RequestType.ST.latency_hist_seqr::bucket_size          256                       (Unspecified)
board.cache_hierarchy.ruby_system.RequestType.ST.latency_hist_seqr::max_bucket         2559                       (Unspecified)
board.cache_hierarchy.ruby_system.RequestType.ST.latency_hist_seqr::samples      2341222                       (Unspecified)
board.cache_hierarchy.ruby_system.RequestType.ST.latency_hist_seqr::mean    55.884788                       (Unspecified)
board.cache_hierarchy.ruby_system.RequestType.ST.latency_hist_seqr::gmean    51.127972                       (Unspecified)
board.cache_hierarchy.ruby_system.RequestType.ST.latency_hist_seqr::stdev    67.200482                       (Unspecified)
board.cache_hierarchy.ruby_system.RequestType.ST.latency_hist_seqr |     2321276     99.15%     99.15% |        3252      0.14%     99.29% |         278      0.01%     99.30% |       15267      0.65%     99.95% |         388      0.02%     99.97% |         758      0.03%    100.00% |           1      0.00%    100.00% |           2      0.00%    100.00% |           0      0.00%    100.00% |           0      0.00%    100.00% (Unspecified)
board.cache_hierarchy.ruby_system.RequestType.ST.latency_hist_seqr::total      2341222                       (Unspecified)
board.cache_hierarchy.ruby_system.RequestType.ST.hit_latency_hist_seqr::bucket_size            8                       (Unspecified)
board.cache_hierarchy.ruby_system.RequestType.ST.hit_latency_hist_seqr::max_bucket           79                       (Unspecified)
board.cache_hierarchy.ruby_system.RequestType.ST.hit_latency_hist_seqr::samples      2321276                       (Unspecified)
board.cache_hierarchy.ruby_system.RequestType.ST.hit_latency_hist_seqr::mean           50                       (Unspecified)
board.cache_hierarchy.ruby_system.RequestType.ST.hit_latency_hist_seqr::gmean    50.000000                       (Unspecified)
board.cache_hierarchy.ruby_system.RequestType.ST.hit_latency_hist_seqr |           0      0.00%      0.00% |           0      0.00%      0.00% |           0      0.00%      0.00% |           0      0.00%      0.00% |           0      0.00%      0.00% |           0      0.00%      0.00% |     2321276    100.00%    100.00% |           0      0.00%    100.00% |           0      0.00%    100.00% |           0      0.00%    100.00% (Unspecified)
board.cache_hierarchy.ruby_system.RequestType.ST.hit_latency_hist_seqr::total      2321276                       (Unspecified)
board.cache_hierarchy.ruby_system.RequestType.ST.miss_latency_hist_seqr::bucket_size          256                       (Unspecified)
board.cache_hierarchy.ruby_system.RequestType.ST.miss_latency_hist_seqr::max_bucket         2559                       (Unspecified)
board.cache_hierarchy.ruby_system.RequestType.ST.miss_latency_hist_seqr::samples        19946                       (Unspecified)
board.cache_hierarchy.ruby_system.RequestType.ST.miss_latency_hist_seqr::mean   740.744811                       (Unspecified)
board.cache_hierarchy.ruby_system.RequestType.ST.miss_latency_hist_seqr::gmean   685.794628                       (Unspecified)
board.cache_hierarchy.ruby_system.RequestType.ST.miss_latency_hist_seqr::stdev   238.761581                       (Unspecified)
board.cache_hierarchy.ruby_system.RequestType.ST.miss_latency_hist_seqr |           0      0.00%      0.00% |        3252     16.30%     16.30% |         278      1.39%     17.70% |       15267     76.54%     94.24% |         388      1.95%     96.18% |         758      3.80%     99.98% |           1      0.01%     99.99% |           2      0.01%    100.00% |           0      0.00%    100.00% |           0      0.00%    100.00% (Unspecified)
board.cache_hierarchy.ruby_system.RequestType.ST.miss_latency_hist_seqr::total        19946                       (Unspecified)
board.cache_hierarchy.ruby_system.RequestType.IFETCH.latency_hist_seqr::bucket_size          256                       (Unspecified)
board.cache_hierarchy.ruby_system.RequestType.IFETCH.latency_hist_seqr::max_bucket         2559                       (Unspecified)
board.cache_hierarchy.ruby_system.RequestType.IFETCH.latency_hist_seqr::samples     26400408                       (Unspecified)
board.cache_hierarchy.ruby_system.RequestType.IFETCH.latency_hist_seqr::mean    52.803854                       (Unspecified)
board.cache_hierarchy.ruby_system.RequestType.IFETCH.latency_hist_seqr::gmean    50.939434                       (Unspecified)
board.cache_hierarchy.ruby_system.RequestType.IFETCH.latency_hist_seqr::stdev    32.366222                       (Unspecified)
board.cache_hierarchy.ruby_system.RequestType.IFETCH.latency_hist_seqr |    26121282     98.94%     98.94% |      251984      0.95%     99.90% |           4      0.00%     99.90% |       25702      0.10%     99.99% |         769      0.00%    100.00% |         661      0.00%    100.00% |           4      0.00%    100.00% |           2      0.00%    100.00% |           0      0.00%    100.00% |           0      0.00%    100.00% (Unspecified)
board.cache_hierarchy.ruby_system.RequestType.IFETCH.latency_hist_seqr::total     26400408                       (Unspecified)
board.cache_hierarchy.ruby_system.RequestType.IFETCH.hit_latency_hist_seqr::bucket_size            8                       (Unspecified)
board.cache_hierarchy.ruby_system.RequestType.IFETCH.hit_latency_hist_seqr::max_bucket           79                       (Unspecified)
board.cache_hierarchy.ruby_system.RequestType.IFETCH.hit_latency_hist_seqr::samples     26121282                       (Unspecified)
board.cache_hierarchy.ruby_system.RequestType.IFETCH.hit_latency_hist_seqr::mean           50                       (Unspecified)
board.cache_hierarchy.ruby_system.RequestType.IFETCH.hit_latency_hist_seqr::gmean    50.000000                       (Unspecified)
board.cache_hierarchy.ruby_system.RequestType.IFETCH.hit_latency_hist_seqr |           0      0.00%      0.00% |           0      0.00%      0.00% |           0      0.00%      0.00% |           0      0.00%      0.00% |           0      0.00%      0.00% |           0      0.00%      0.00% |    26121282    100.00%    100.00% |           0      0.00%    100.00% |           0      0.00%    100.00% |           0      0.00%    100.00% (Unspecified)
board.cache_hierarchy.ruby_system.RequestType.IFETCH.hit_latency_hist_seqr::total     26121282                       (Unspecified)
board.cache_hierarchy.ruby_system.RequestType.IFETCH.miss_latency_hist_seqr::bucket_size          256                       (Unspecified)
board.cache_hierarchy.ruby_system.RequestType.IFETCH.miss_latency_hist_seqr::max_bucket         2559                       (Unspecified)
board.cache_hierarchy.ruby_system.RequestType.IFETCH.miss_latency_hist_seqr::samples       279126                       (Unspecified)
board.cache_hierarchy.ruby_system.RequestType.IFETCH.miss_latency_hist_seqr::mean   315.195245                       (Unspecified)
board.cache_hierarchy.ruby_system.RequestType.IFETCH.miss_latency_hist_seqr::gmean   290.793475                       (Unspecified)
board.cache_hierarchy.ruby_system.RequestType.IFETCH.miss_latency_hist_seqr::stdev   171.747088                       (Unspecified)
board.cache_hierarchy.ruby_system.RequestType.IFETCH.miss_latency_hist_seqr |           0      0.00%      0.00% |      251984     90.28%     90.28% |           4      0.00%     90.28% |       25702      9.21%     99.49% |         769      0.28%     99.76% |         661      0.24%    100.00% |           4      0.00%    100.00% |           2      0.00%    100.00% |           0      0.00%    100.00% |           0      0.00%    100.00% (Unspecified)
board.cache_hierarchy.ruby_system.RequestType.IFETCH.miss_latency_hist_seqr::total       279126                       (Unspecified)
board.cache_hierarchy.ruby_system.RequestType.RMW_Read.latency_hist_seqr::bucket_size          256                       (Unspecified)
board.cache_hierarchy.ruby_system.RequestType.RMW_Read.latency_hist_seqr::max_bucket         2559                       (Unspecified)
board.cache_hierarchy.ruby_system.RequestType.RMW_Read.latency_hist_seqr::samples       149739                       (Unspecified)
board.cache_hierarchy.ruby_system.RequestType.RMW_Read.latency_hist_seqr::mean    57.587916                       (Unspecified)
board.cache_hierarchy.ruby_system.RequestType.RMW_Read.latency_hist_seqr::gmean    51.560364                       (Unspecified)
board.cache_hierarchy.ruby_system.RequestType.RMW_Read.latency_hist_seqr::stdev    73.996447                       (Unspecified)
board.cache_hierarchy.ruby_system.RequestType.RMW_Read.latency_hist_seqr |      147868     98.75%     98.75% |         543      0.36%     99.11% |         124      0.08%     99.20% |        1134      0.76%     99.95% |          37      0.02%     99.98% |          32      0.02%    100.00% |           1      0.00%    100.00% |           0      0.00%    100.00% |           0      0.00%    100.00% |           0      0.00%    100.00% (Unspecified)
board.cache_hierarchy.ruby_system.RequestType.RMW_Read.latency_hist_seqr::total       149739                       (Unspecified)
board.cache_hierarchy.ruby_system.RequestType.RMW_Read.hit_latency_hist_seqr::bucket_size            8                       (Unspecified)
board.cache_hierarchy.ruby_system.RequestType.RMW_Read.hit_latency_hist_seqr::max_bucket           79                       (Unspecified)
board.cache_hierarchy.ruby_system.RequestType.RMW_Read.hit_latency_hist_seqr::samples       147868                       (Unspecified)
board.cache_hierarchy.ruby_system.RequestType.RMW_Read.hit_latency_hist_seqr::mean           50                       (Unspecified)
board.cache_hierarchy.ruby_system.RequestType.RMW_Read.hit_latency_hist_seqr::gmean    50.000000                       (Unspecified)
board.cache_hierarchy.ruby_system.RequestType.RMW_Read.hit_latency_hist_seqr |           0      0.00%      0.00% |           0      0.00%      0.00% |           0      0.00%      0.00% |           0      0.00%      0.00% |           0      0.00%      0.00% |           0      0.00%      0.00% |      147868    100.00%    100.00% |           0      0.00%    100.00% |           0      0.00%    100.00% |           0      0.00%    100.00% (Unspecified)
board.cache_hierarchy.ruby_system.RequestType.RMW_Read.hit_latency_hist_seqr::total       147868                       (Unspecified)
board.cache_hierarchy.ruby_system.RequestType.RMW_Read.miss_latency_hist_seqr::bucket_size          256                       (Unspecified)
board.cache_hierarchy.ruby_system.RequestType.RMW_Read.miss_latency_hist_seqr::max_bucket         2559                       (Unspecified)
board.cache_hierarchy.ruby_system.RequestType.RMW_Read.miss_latency_hist_seqr::samples         1871                       (Unspecified)
board.cache_hierarchy.ruby_system.RequestType.RMW_Read.miss_latency_hist_seqr::mean   657.272582                       (Unspecified)
board.cache_hierarchy.ruby_system.RequestType.RMW_Read.miss_latency_hist_seqr::gmean   584.882721                       (Unspecified)
board.cache_hierarchy.ruby_system.RequestType.RMW_Read.miss_latency_hist_seqr::stdev   272.167600                       (Unspecified)
board.cache_hierarchy.ruby_system.RequestType.RMW_Read.miss_latency_hist_seqr |           0      0.00%      0.00% |         543     29.02%     29.02% |         124      6.63%     35.65% |        1134     60.61%     96.26% |          37      1.98%     98.24% |          32      1.71%     99.95% |           1      0.05%    100.00% |           0      0.00%    100.00% |           0      0.00%    100.00% |           0      0.00%    100.00% (Unspecified)
board.cache_hierarchy.ruby_system.RequestType.RMW_Read.miss_latency_hist_seqr::total         1871                       (Unspecified)
board.cache_hierarchy.ruby_system.RequestType.Locked_RMW_Read.latency_hist_seqr::bucket_size          128                       (Unspecified)
board.cache_hierarchy.ruby_system.RequestType.Locked_RMW_Read.latency_hist_seqr::max_bucket         1279                       (Unspecified)
board.cache_hierarchy.ruby_system.RequestType.Locked_RMW_Read.latency_hist_seqr::samples         2879                       (Unspecified)
board.cache_hierarchy.ruby_system.RequestType.Locked_RMW_Read.latency_hist_seqr::mean    61.950330                       (Unspecified)
board.cache_hierarchy.ruby_system.RequestType.Locked_RMW_Read.latency_hist_seqr::gmean    52.719860                       (Unspecified)
board.cache_hierarchy.ruby_system.RequestType.Locked_RMW_Read.latency_hist_seqr::stdev    88.284984                       (Unspecified)
board.cache_hierarchy.ruby_system.RequestType.Locked_RMW_Read.latency_hist_seqr |        2812     97.67%     97.67% |           0      0.00%     97.67% |          30      1.04%     98.71% |           0      0.00%     98.71% |           0      0.00%     98.71% |           4      0.14%     98.85% |          30      1.04%     99.90% |           1      0.03%     99.93% |           1      0.03%     99.97% |           1      0.03%    100.00% (Unspecified)
board.cache_hierarchy.ruby_system.RequestType.Locked_RMW_Read.latency_hist_seqr::total         2879                       (Unspecified)
board.cache_hierarchy.ruby_system.RequestType.Locked_RMW_Read.hit_latency_hist_seqr::bucket_size            8                       (Unspecified)
board.cache_hierarchy.ruby_system.RequestType.Locked_RMW_Read.hit_latency_hist_seqr::max_bucket           79                       (Unspecified)
board.cache_hierarchy.ruby_system.RequestType.Locked_RMW_Read.hit_latency_hist_seqr::samples         2812                       (Unspecified)
board.cache_hierarchy.ruby_system.RequestType.Locked_RMW_Read.hit_latency_hist_seqr::mean           50                       (Unspecified)
board.cache_hierarchy.ruby_system.RequestType.Locked_RMW_Read.hit_latency_hist_seqr::gmean    50.000000                       (Unspecified)
board.cache_hierarchy.ruby_system.RequestType.Locked_RMW_Read.hit_latency_hist_seqr |           0      0.00%      0.00% |           0      0.00%      0.00% |           0      0.00%      0.00% |           0      0.00%      0.00% |           0      0.00%      0.00% |           0      0.00%      0.00% |        2812    100.00%    100.00% |           0      0.00%    100.00% |           0      0.00%    100.00% |           0      0.00%    100.00% (Unspecified)
board.cache_hierarchy.ruby_system.RequestType.Locked_RMW_Read.hit_latency_hist_seqr::total         2812                       (Unspecified)
board.cache_hierarchy.ruby_system.RequestType.Locked_RMW_Read.miss_latency_hist_seqr::bucket_size          128                       (Unspecified)
board.cache_hierarchy.ruby_system.RequestType.Locked_RMW_Read.miss_latency_hist_seqr::max_bucket         1279                       (Unspecified)
board.cache_hierarchy.ruby_system.RequestType.Locked_RMW_Read.miss_latency_hist_seqr::samples           67                       (Unspecified)
board.cache_hierarchy.ruby_system.RequestType.Locked_RMW_Read.miss_latency_hist_seqr::mean   563.507463                       (Unspecified)
board.cache_hierarchy.ruby_system.RequestType.Locked_RMW_Read.miss_latency_hist_seqr::gmean   486.929212                       (Unspecified)
board.cache_hierarchy.ruby_system.RequestType.Locked_RMW_Read.miss_latency_hist_seqr::stdev   280.036381                       (Unspecified)
board.cache_hierarchy.ruby_system.RequestType.Locked_RMW_Read.miss_latency_hist_seqr |           0      0.00%      0.00% |           0      0.00%      0.00% |          30     44.78%     44.78% |           0      0.00%     44.78% |           0      0.00%     44.78% |           4      5.97%     50.75% |          30     44.78%     95.52% |           1      1.49%     97.01% |           1      1.49%     98.51% |           1      1.49%    100.00% (Unspecified)
board.cache_hierarchy.ruby_system.RequestType.Locked_RMW_Read.miss_latency_hist_seqr::total           67                       (Unspecified)
board.cache_hierarchy.ruby_system.RequestType.Locked_RMW_Write.latency_hist_seqr::bucket_size            8                       (Unspecified)
board.cache_hierarchy.ruby_system.RequestType.Locked_RMW_Write.latency_hist_seqr::max_bucket           79                       (Unspecified)
board.cache_hierarchy.ruby_system.RequestType.Locked_RMW_Write.latency_hist_seqr::samples         2879                       (Unspecified)
board.cache_hierarchy.ruby_system.RequestType.Locked_RMW_Write.latency_hist_seqr::mean           50                       (Unspecified)
board.cache_hierarchy.ruby_system.RequestType.Locked_RMW_Write.latency_hist_seqr::gmean    50.000000                       (Unspecified)
board.cache_hierarchy.ruby_system.RequestType.Locked_RMW_Write.latency_hist_seqr |           0      0.00%      0.00% |           0      0.00%      0.00% |           0      0.00%      0.00% |           0      0.00%      0.00% |           0      0.00%      0.00% |           0      0.00%      0.00% |        2879    100.00%    100.00% |           0      0.00%    100.00% |           0      0.00%    100.00% |           0      0.00%    100.00% (Unspecified)
board.cache_hierarchy.ruby_system.RequestType.Locked_RMW_Write.latency_hist_seqr::total         2879                       (Unspecified)
board.cache_hierarchy.ruby_system.RequestType.Locked_RMW_Write.hit_latency_hist_seqr::bucket_size            8                       (Unspecified)
board.cache_hierarchy.ruby_system.RequestType.Locked_RMW_Write.hit_latency_hist_seqr::max_bucket           79                       (Unspecified)
board.cache_hierarchy.ruby_system.RequestType.Locked_RMW_Write.hit_latency_hist_seqr::samples         2879                       (Unspecified)
board.cache_hierarchy.ruby_system.RequestType.Locked_RMW_Write.hit_latency_hist_seqr::mean           50                       (Unspecified)
board.cache_hierarchy.ruby_system.RequestType.Locked_RMW_Write.hit_latency_hist_seqr::gmean    50.000000                       (Unspecified)
board.cache_hierarchy.ruby_system.RequestType.Locked_RMW_Write.hit_latency_hist_seqr |           0      0.00%      0.00% |           0      0.00%      0.00% |           0      0.00%      0.00% |           0      0.00%      0.00% |           0      0.00%      0.00% |           0      0.00%      0.00% |        2879    100.00%    100.00% |           0      0.00%    100.00% |           0      0.00%    100.00% |           0      0.00%    100.00% (Unspecified)
board.cache_hierarchy.ruby_system.RequestType.Locked_RMW_Write.hit_latency_hist_seqr::total         2879                       (Unspecified)
board.cache_hierarchy.ruby_system.directory_controllers0.power_state.pwrStateResidencyTicks::UNDEFINED 11183668021565                       # Cumulative time (in ticks) in various power states (Tick)
board.cache_hierarchy.ruby_system.directory_controllers0.requestToDir.m_msg_count        54608                       # Number of messages passed the buffer (Count)
board.cache_hierarchy.ruby_system.directory_controllers0.requestToDir.m_buf_msgs     0.000031                       # Average number of messages in buffer ((Count/Tick))
board.cache_hierarchy.ruby_system.directory_controllers0.requestToMemory.m_msg_count        68387                       # Number of messages passed the buffer (Count)
board.cache_hierarchy.ruby_system.directory_controllers0.requestToMemory.m_buf_msgs     0.000039                       # Average number of messages in buffer ((Count/Tick))
board.cache_hierarchy.ruby_system.directory_controllers0.requestToMemory.m_stall_time       416695                       # Total number of ticks messages were stalled in this buffer (Tick)
board.cache_hierarchy.ruby_system.directory_controllers0.requestToMemory.m_avg_stall_time     6.093190                       # Average stall ticks per message ((Tick/Count))
board.cache_hierarchy.ruby_system.directory_controllers0.responseFromDir.m_msg_count        94613                       # Number of messages passed the buffer (Count)
board.cache_hierarchy.ruby_system.directory_controllers0.responseFromDir.m_buf_msgs     0.000054                       # Average number of messages in buffer ((Count/Tick))
board.cache_hierarchy.ruby_system.directory_controllers0.responseFromMemory.m_msg_count        68387                       # Number of messages passed the buffer (Count)
board.cache_hierarchy.ruby_system.directory_controllers0.responseFromMemory.m_buf_msgs     0.000052                       # Average number of messages in buffer ((Count/Tick))
board.cache_hierarchy.ruby_system.directory_controllers0.responseToDir.m_msg_count        39890                       # Number of messages passed the buffer (Count)
board.cache_hierarchy.ruby_system.directory_controllers0.responseToDir.m_buf_msgs     0.000023                       # Average number of messages in buffer ((Count/Tick))
board.cache_hierarchy.ruby_system.directory_controllers1.power_state.pwrStateResidencyTicks::UNDEFINED 11183668021565                       # Cumulative time (in ticks) in various power states (Tick)
board.cache_hierarchy.ruby_system.directory_controllers1.requestToDir.m_msg_count        54094                       # Number of messages passed the buffer (Count)
board.cache_hierarchy.ruby_system.directory_controllers1.requestToDir.m_buf_msgs     0.000031                       # Average number of messages in buffer ((Count/Tick))
board.cache_hierarchy.ruby_system.directory_controllers1.requestToMemory.m_msg_count        67717                       # Number of messages passed the buffer (Count)
board.cache_hierarchy.ruby_system.directory_controllers1.requestToMemory.m_buf_msgs     0.000040                       # Average number of messages in buffer ((Count/Tick))
board.cache_hierarchy.ruby_system.directory_controllers1.requestToMemory.m_stall_time      1004632                       # Total number of ticks messages were stalled in this buffer (Tick)
board.cache_hierarchy.ruby_system.directory_controllers1.requestToMemory.m_avg_stall_time    14.835743                       # Average stall ticks per message ((Tick/Count))
board.cache_hierarchy.ruby_system.directory_controllers1.responseFromDir.m_msg_count        93607                       # Number of messages passed the buffer (Count)
board.cache_hierarchy.ruby_system.directory_controllers1.responseFromDir.m_buf_msgs     0.000054                       # Average number of messages in buffer ((Count/Tick))
board.cache_hierarchy.ruby_system.directory_controllers1.responseFromMemory.m_msg_count        67717                       # Number of messages passed the buffer (Count)
board.cache_hierarchy.ruby_system.directory_controllers1.responseFromMemory.m_buf_msgs     0.000051                       # Average number of messages in buffer ((Count/Tick))
board.cache_hierarchy.ruby_system.directory_controllers1.responseToDir.m_msg_count        39427                       # Number of messages passed the buffer (Count)
board.cache_hierarchy.ruby_system.directory_controllers1.responseToDir.m_buf_msgs     0.000022                       # Average number of messages in buffer ((Count/Tick))
board.cache_hierarchy.ruby_system.dma_controllers0.dma_sequencer.power_state.pwrStateResidencyTicks::UNDEFINED 11183668021565                       # Cumulative time (in ticks) in various power states (Tick)
board.cache_hierarchy.ruby_system.dma_controllers0.mandatoryQueue.m_msg_count        29358                       # Number of messages passed the buffer (Count)
board.cache_hierarchy.ruby_system.dma_controllers0.mandatoryQueue.m_buf_msgs     0.000017                       # Average number of messages in buffer ((Count/Tick))
board.cache_hierarchy.ruby_system.dma_controllers0.power_state.pwrStateResidencyTicks::UNDEFINED 11183668021565                       # Cumulative time (in ticks) in various power states (Tick)
board.cache_hierarchy.ruby_system.dma_controllers0.requestToDir.m_msg_count        29358                       # Number of messages passed the buffer (Count)
board.cache_hierarchy.ruby_system.dma_controllers0.requestToDir.m_buf_msgs     0.008352                       # Average number of messages in buffer ((Count/Tick))
board.cache_hierarchy.ruby_system.dma_controllers0.responseFromDir.m_msg_count        29358                       # Number of messages passed the buffer (Count)
board.cache_hierarchy.ruby_system.dma_controllers0.responseFromDir.m_buf_msgs     0.000017                       # Average number of messages in buffer ((Count/Tick))
board.cache_hierarchy.ruby_system.dma_controllers1.dma_sequencer.power_state.pwrStateResidencyTicks::UNDEFINED 11183668021565                       # Cumulative time (in ticks) in various power states (Tick)
board.cache_hierarchy.ruby_system.dma_controllers1.power_state.pwrStateResidencyTicks::UNDEFINED 11183668021565                       # Cumulative time (in ticks) in various power states (Tick)
board.cache_hierarchy.ruby_system.dma_controllers2.dma_sequencer.power_state.pwrStateResidencyTicks::UNDEFINED 11183668021565                       # Cumulative time (in ticks) in various power states (Tick)
board.cache_hierarchy.ruby_system.dma_controllers2.power_state.pwrStateResidencyTicks::UNDEFINED 11183668021565                       # Cumulative time (in ticks) in various power states (Tick)
board.cache_hierarchy.ruby_system.l1_controllers0.delayHistogram::samples       437621                       # delay_histogram (Unspecified)
board.cache_hierarchy.ruby_system.l1_controllers0.delayHistogram::mean     0.000018                       # delay_histogram (Unspecified)
board.cache_hierarchy.ruby_system.l1_controllers0.delayHistogram::stdev     0.009561                       # delay_histogram (Unspecified)
board.cache_hierarchy.ruby_system.l1_controllers0.delayHistogram::0       437619    100.00%    100.00% # delay_histogram (Unspecified)
board.cache_hierarchy.ruby_system.l1_controllers0.delayHistogram::2            1      0.00%    100.00% # delay_histogram (Unspecified)
board.cache_hierarchy.ruby_system.l1_controllers0.delayHistogram::6            1      0.00%    100.00% # delay_histogram (Unspecified)
board.cache_hierarchy.ruby_system.l1_controllers0.delayHistogram::total       437621                       # delay_histogram (Unspecified)
board.cache_hierarchy.ruby_system.l1_controllers0.L1Dcache.m_demand_hits      5688503                       # Number of cache demand hits (Unspecified)
board.cache_hierarchy.ruby_system.l1_controllers0.L1Dcache.m_demand_misses        65727                       # Number of cache demand misses (Unspecified)
board.cache_hierarchy.ruby_system.l1_controllers0.L1Dcache.m_demand_accesses      5754230                       # Number of cache demand accesses (Unspecified)
board.cache_hierarchy.ruby_system.l1_controllers0.L1Icache.m_demand_hits     26121282                       # Number of cache demand hits (Unspecified)
board.cache_hierarchy.ruby_system.l1_controllers0.L1Icache.m_demand_misses       279126                       # Number of cache demand misses (Unspecified)
board.cache_hierarchy.ruby_system.l1_controllers0.L1Icache.m_demand_accesses     26400408                       # Number of cache demand accesses (Unspecified)
board.cache_hierarchy.ruby_system.l1_controllers0.mandatoryQueue.m_msg_count     32154638                       # Number of messages passed the buffer (Count)
board.cache_hierarchy.ruby_system.l1_controllers0.mandatoryQueue.m_buf_msgs     0.914771                       # Average number of messages in buffer ((Count/Tick))
board.cache_hierarchy.ruby_system.l1_controllers0.mandatoryQueue.m_stall_time       387810                       # Total number of ticks messages were stalled in this buffer (Tick)
board.cache_hierarchy.ruby_system.l1_controllers0.mandatoryQueue.m_stall_count            3                       # Number of times messages were stalled (Count)
board.cache_hierarchy.ruby_system.l1_controllers0.mandatoryQueue.m_avg_stall_time     0.012061                       # Average stall ticks per message ((Tick/Count))
board.cache_hierarchy.ruby_system.l1_controllers0.power_state.pwrStateResidencyTicks::UNDEFINED 11183668021565                       # Cumulative time (in ticks) in various power states (Tick)
board.cache_hierarchy.ruby_system.l1_controllers0.prefetcher.RubyPrefetcher.numMissObserved            0                       # Number of misses observed (Unspecified)
board.cache_hierarchy.ruby_system.l1_controllers0.prefetcher.RubyPrefetcher.numAllocatedStreams            0                       # Number of streams allocated for prefetching (Unspecified)
board.cache_hierarchy.ruby_system.l1_controllers0.prefetcher.RubyPrefetcher.numPrefetchRequested            0                       # Number of prefetch requests made (Unspecified)
board.cache_hierarchy.ruby_system.l1_controllers0.prefetcher.RubyPrefetcher.numHits            0                       # Number of prefetched blocks accessed (for the first time) (Unspecified)
board.cache_hierarchy.ruby_system.l1_controllers0.prefetcher.RubyPrefetcher.numPartialHits            0                       # Number of misses observed for a block being prefetched (Unspecified)
board.cache_hierarchy.ruby_system.l1_controllers0.prefetcher.RubyPrefetcher.numPagesCrossed            0                       # Number of prefetches across pages (Unspecified)
board.cache_hierarchy.ruby_system.l1_controllers0.prefetcher.RubyPrefetcher.numMissedPrefetchedBlocks            0                       # Number of misses for blocks that were prefetched, yet missed (Unspecified)
board.cache_hierarchy.ruby_system.l1_controllers0.requestFromL1Cache.m_msg_count       401171                       # Number of messages passed the buffer (Count)
board.cache_hierarchy.ruby_system.l1_controllers0.requestFromL1Cache.m_buf_msgs     0.000457                       # Average number of messages in buffer ((Count/Tick))
board.cache_hierarchy.ruby_system.l1_controllers0.requestToL1Cache.m_msg_count        36450                       # Number of messages passed the buffer (Count)
board.cache_hierarchy.ruby_system.l1_controllers0.requestToL1Cache.m_buf_msgs     0.000021                       # Average number of messages in buffer ((Count/Tick))
board.cache_hierarchy.ruby_system.l1_controllers0.responseFromL1Cache.m_msg_count         5325                       # Number of messages passed the buffer (Count)
board.cache_hierarchy.ruby_system.l1_controllers0.responseFromL1Cache.m_buf_msgs     0.000006                       # Average number of messages in buffer ((Count/Tick))
board.cache_hierarchy.ruby_system.l1_controllers0.responseToL1Cache.m_buf_msgs 192849.438276                       # Average number of messages in buffer ((Count/Tick))
board.cache_hierarchy.ruby_system.l1_controllers0.rspDataFromL1Cache.m_msg_count        36450                       # Number of messages passed the buffer (Count)
board.cache_hierarchy.ruby_system.l1_controllers0.rspDataFromL1Cache.m_buf_msgs     0.000041                       # Average number of messages in buffer ((Count/Tick))
board.cache_hierarchy.ruby_system.l1_controllers0.rspDataToL1Cache.m_msg_count       401171                       # Number of messages passed the buffer (Count)
board.cache_hierarchy.ruby_system.l1_controllers0.rspDataToL1Cache.m_buf_msgs     0.000228                       # Average number of messages in buffer ((Count/Tick))
board.cache_hierarchy.ruby_system.l1_controllers0.sequencer.power_state.pwrStateResidencyTicks::UNDEFINED 11183668021565                       # Cumulative time (in ticks) in various power states (Tick)
board.cache_hierarchy.ruby_system.l1_controllers0.unblockFromL1Cache.m_msg_count        65727                       # Number of messages passed the buffer (Count)
board.cache_hierarchy.ruby_system.l1_controllers0.unblockFromL1Cache.m_buf_msgs     0.000037                       # Average number of messages in buffer ((Count/Tick))
board.cache_hierarchy.ruby_system.l1_controllers1.delayHistogram::samples         1023                       # delay_histogram (Unspecified)
board.cache_hierarchy.ruby_system.l1_controllers1.delayHistogram::mean     0.035191                       # delay_histogram (Unspecified)
board.cache_hierarchy.ruby_system.l1_controllers1.delayHistogram::stdev     0.263079                       # delay_histogram (Unspecified)
board.cache_hierarchy.ruby_system.l1_controllers1.delayHistogram::0         1005     98.24%     98.24% # delay_histogram (Unspecified)
board.cache_hierarchy.ruby_system.l1_controllers1.delayHistogram::2           18      1.76%    100.00% # delay_histogram (Unspecified)
board.cache_hierarchy.ruby_system.l1_controllers1.delayHistogram::total         1023                       # delay_histogram (Unspecified)
board.cache_hierarchy.ruby_system.l1_controllers1.L1Dcache.m_demand_hits            0                       # Number of cache demand hits (Unspecified)
board.cache_hierarchy.ruby_system.l1_controllers1.L1Dcache.m_demand_misses          512                       # Number of cache demand misses (Unspecified)
board.cache_hierarchy.ruby_system.l1_controllers1.L1Dcache.m_demand_accesses          512                       # Number of cache demand accesses (Unspecified)
board.cache_hierarchy.ruby_system.l1_controllers1.L1Icache.m_demand_hits            0                       # Number of cache demand hits (Unspecified)
board.cache_hierarchy.ruby_system.l1_controllers1.L1Icache.m_demand_misses            0                       # Number of cache demand misses (Unspecified)
board.cache_hierarchy.ruby_system.l1_controllers1.L1Icache.m_demand_accesses            0                       # Number of cache demand accesses (Unspecified)
board.cache_hierarchy.ruby_system.l1_controllers1.mandatoryQueue.m_msg_count          512                       # Number of messages passed the buffer (Count)
board.cache_hierarchy.ruby_system.l1_controllers1.mandatoryQueue.m_buf_msgs     0.000080                       # Average number of messages in buffer ((Count/Tick))
board.cache_hierarchy.ruby_system.l1_controllers1.power_state.pwrStateResidencyTicks::UNDEFINED 11183668021565                       # Cumulative time (in ticks) in various power states (Tick)
board.cache_hierarchy.ruby_system.l1_controllers1.prefetcher.RubyPrefetcher.numMissObserved            0                       # Number of misses observed (Unspecified)
board.cache_hierarchy.ruby_system.l1_controllers1.prefetcher.RubyPrefetcher.numAllocatedStreams            0                       # Number of streams allocated for prefetching (Unspecified)
board.cache_hierarchy.ruby_system.l1_controllers1.prefetcher.RubyPrefetcher.numPrefetchRequested            0                       # Number of prefetch requests made (Unspecified)
board.cache_hierarchy.ruby_system.l1_controllers1.prefetcher.RubyPrefetcher.numHits            0                       # Number of prefetched blocks accessed (for the first time) (Unspecified)
board.cache_hierarchy.ruby_system.l1_controllers1.prefetcher.RubyPrefetcher.numPartialHits            0                       # Number of misses observed for a block being prefetched (Unspecified)
board.cache_hierarchy.ruby_system.l1_controllers1.prefetcher.RubyPrefetcher.numPagesCrossed            0                       # Number of prefetches across pages (Unspecified)
board.cache_hierarchy.ruby_system.l1_controllers1.prefetcher.RubyPrefetcher.numMissedPrefetchedBlocks            0                       # Number of misses for blocks that were prefetched, yet missed (Unspecified)
board.cache_hierarchy.ruby_system.l1_controllers1.requestFromL1Cache.m_msg_count          512                       # Number of messages passed the buffer (Count)
board.cache_hierarchy.ruby_system.l1_controllers1.requestFromL1Cache.m_buf_msgs     0.000158                       # Average number of messages in buffer ((Count/Tick))
board.cache_hierarchy.ruby_system.l1_controllers1.requestToL1Cache.m_msg_count          511                       # Number of messages passed the buffer (Count)
board.cache_hierarchy.ruby_system.l1_controllers1.requestToL1Cache.m_buf_msgs     0.000000                       # Average number of messages in buffer ((Count/Tick))
board.cache_hierarchy.ruby_system.l1_controllers1.responseToL1Cache.m_buf_msgs   117.104865                       # Average number of messages in buffer ((Count/Tick))
board.cache_hierarchy.ruby_system.l1_controllers1.rspDataFromL1Cache.m_msg_count          511                       # Number of messages passed the buffer (Count)
board.cache_hierarchy.ruby_system.l1_controllers1.rspDataFromL1Cache.m_buf_msgs     0.000158                       # Average number of messages in buffer ((Count/Tick))
board.cache_hierarchy.ruby_system.l1_controllers1.rspDataToL1Cache.m_msg_count          512                       # Number of messages passed the buffer (Count)
board.cache_hierarchy.ruby_system.l1_controllers1.rspDataToL1Cache.m_buf_msgs     0.000000                       # Average number of messages in buffer ((Count/Tick))
board.cache_hierarchy.ruby_system.l1_controllers1.sequencer.power_state.pwrStateResidencyTicks::UNDEFINED 11183668021565                       # Cumulative time (in ticks) in various power states (Tick)
board.cache_hierarchy.ruby_system.l1_controllers1.unblockFromL1Cache.m_msg_count          512                       # Number of messages passed the buffer (Count)
board.cache_hierarchy.ruby_system.l1_controllers1.unblockFromL1Cache.m_buf_msgs     0.000000                       # Average number of messages in buffer ((Count/Tick))
board.cache_hierarchy.ruby_system.l2_controllers.fullyBusyCycles           88                       # cycles for which number of transistions == max transitions (Unspecified)
board.cache_hierarchy.ruby_system.l2_controllers.delayHistogram::samples       663745                       # delay_histogram (Unspecified)
board.cache_hierarchy.ruby_system.l2_controllers.delayHistogram::mean     0.541788                       # delay_histogram (Unspecified)
board.cache_hierarchy.ruby_system.l2_controllers.delayHistogram::stdev    10.109327                       # delay_histogram (Unspecified)
board.cache_hierarchy.ruby_system.l2_controllers.delayHistogram::0-127       663550     99.97%     99.97% # delay_histogram (Unspecified)
board.cache_hierarchy.ruby_system.l2_controllers.delayHistogram::128-255           64      0.01%     99.98% # delay_histogram (Unspecified)
board.cache_hierarchy.ruby_system.l2_controllers.delayHistogram::256-383           38      0.01%     99.99% # delay_histogram (Unspecified)
board.cache_hierarchy.ruby_system.l2_controllers.delayHistogram::384-511           33      0.00%     99.99% # delay_histogram (Unspecified)
board.cache_hierarchy.ruby_system.l2_controllers.delayHistogram::512-639            2      0.00%     99.99% # delay_histogram (Unspecified)
board.cache_hierarchy.ruby_system.l2_controllers.delayHistogram::640-767            7      0.00%     99.99% # delay_histogram (Unspecified)
board.cache_hierarchy.ruby_system.l2_controllers.delayHistogram::768-895           19      0.00%    100.00% # delay_histogram (Unspecified)
board.cache_hierarchy.ruby_system.l2_controllers.delayHistogram::896-1023           15      0.00%    100.00% # delay_histogram (Unspecified)
board.cache_hierarchy.ruby_system.l2_controllers.delayHistogram::1024-1151           15      0.00%    100.00% # delay_histogram (Unspecified)
board.cache_hierarchy.ruby_system.l2_controllers.delayHistogram::1152-1279            2      0.00%    100.00% # delay_histogram (Unspecified)
board.cache_hierarchy.ruby_system.l2_controllers.delayHistogram::total       663745                       # delay_histogram (Unspecified)
board.cache_hierarchy.ruby_system.l2_controllers.DirRequestFromL2Cache.m_msg_count        79344                       # Number of messages passed the buffer (Count)
board.cache_hierarchy.ruby_system.l2_controllers.DirRequestFromL2Cache.m_buf_msgs     0.013543                       # Average number of messages in buffer ((Count/Tick))
board.cache_hierarchy.ruby_system.l2_controllers.L1RequestFromL2Cache.m_msg_count        36961                       # Number of messages passed the buffer (Count)
board.cache_hierarchy.ruby_system.l2_controllers.L1RequestFromL2Cache.m_buf_msgs     0.006309                       # Average number of messages in buffer ((Count/Tick))
board.cache_hierarchy.ruby_system.l2_controllers.L1RequestToL2Cache.m_msg_count       401683                       # Number of messages passed the buffer (Count)
board.cache_hierarchy.ruby_system.l2_controllers.L1RequestToL2Cache.m_buf_msgs     0.000236                       # Average number of messages in buffer ((Count/Tick))
board.cache_hierarchy.ruby_system.l2_controllers.L1RequestToL2Cache.m_stall_time      5691633                       # Total number of ticks messages were stalled in this buffer (Tick)
board.cache_hierarchy.ruby_system.l2_controllers.L1RequestToL2Cache.m_avg_stall_time    14.169464                       # Average stall ticks per message ((Tick/Count))
board.cache_hierarchy.ruby_system.l2_controllers.L2cache.m_demand_hits       266021                       # Number of cache demand hits (Unspecified)
board.cache_hierarchy.ruby_system.l2_controllers.L2cache.m_demand_misses        79344                       # Number of cache demand misses (Unspecified)
board.cache_hierarchy.ruby_system.l2_controllers.L2cache.m_demand_accesses       345365                       # Number of cache demand accesses (Unspecified)
board.cache_hierarchy.ruby_system.l2_controllers.power_state.pwrStateResidencyTicks::UNDEFINED 11183668021565                       # Cumulative time (in ticks) in various power states (Tick)
board.cache_hierarchy.ruby_system.l2_controllers.responseFromL2Cache.m_msg_count       345365                       # Number of messages passed the buffer (Count)
board.cache_hierarchy.ruby_system.l2_controllers.responseFromL2Cache.m_buf_msgs     0.043815                       # Average number of messages in buffer ((Count/Tick))
board.cache_hierarchy.ruby_system.l2_controllers.responseToL2Cache.m_buf_msgs  2848.337416                       # Average number of messages in buffer ((Count/Tick))
board.cache_hierarchy.ruby_system.l2_controllers.rspDataFromL2Cache.m_msg_count       481000                       # Number of messages passed the buffer (Count)
board.cache_hierarchy.ruby_system.l2_controllers.rspDataFromL2Cache.m_buf_msgs     0.062454                       # Average number of messages in buffer ((Count/Tick))
board.cache_hierarchy.ruby_system.l2_controllers.rspDataToL2Cache.m_msg_count       195823                       # Number of messages passed the buffer (Count)
board.cache_hierarchy.ruby_system.l2_controllers.rspDataToL2Cache.m_buf_msgs     0.000111                       # Average number of messages in buffer ((Count/Tick))
board.cache_hierarchy.ruby_system.l2_controllers.unblockToL2Cache.m_msg_count        66239                       # Number of messages passed the buffer (Count)
board.cache_hierarchy.ruby_system.l2_controllers.unblockToL2Cache.m_buf_msgs     0.000038                       # Average number of messages in buffer ((Count/Tick))
board.cache_hierarchy.ruby_system.network.msg_count.Control       954842                       (Unspecified)
[...]
board.processor.switch.core.commitStats0.numFpInsts       106036                       # Number of float instructions (Count)
board.processor.switch.core.commitStats0.numIntInsts     48709533                       # Number of integer instructions (Count)
board.processor.switch.core.commitStats0.numLoadInsts      3388196                       # Number of load instructions (Count)
board.processor.switch.core.commitStats0.numStoreInsts      2345175                       # Number of store instructions (Count)
board.processor.switch.core.commitStats0.numVecInsts            0                       # Number of vector instructions (Count)
board.processor.switch.core.commitStats0.committedInstType::No_OpClass       215374      0.43%      0.43% # Class of committed instruction. (Count)
board.processor.switch.core.commitStats0.committedInstType::IntAlu     43637049     87.71%     88.14% # Class of committed instruction. (Count)
board.processor.switch.core.commitStats0.committedInstType::IntMult        28191      0.06%     88.20% # Class of committed instruction. (Count)
board.processor.switch.core.commitStats0.committedInstType::IntDiv        79523      0.16%     88.36% # Class of committed instruction. (Count)
board.processor.switch.core.commitStats0.committedInstType::FloatAdd         6637      0.01%     88.37% # Class of committed instruction. (Count)
board.processor.switch.core.commitStats0.committedInstType::FloatCmp            0      0.00%     88.37% # Class of committed instruction. (Count)
board.processor.switch.core.commitStats0.committedInstType::FloatCvt         2880      0.01%     88.38% # Class of committed instruction. (Count)
board.processor.switch.core.commitStats0.committedInstType::FloatMult            0      0.00%     88.38% # Class of committed instruction. (Count)
board.processor.switch.core.commitStats0.committedInstType::FloatMultAcc            0      0.00%     88.38% # Class of committed instruction. (Count)
board.processor.switch.core.commitStats0.committedInstType::FloatDiv            0      0.00%     88.38% # Class of committed instruction. (Count)
board.processor.switch.core.commitStats0.committedInstType::FloatMisc            0      0.00%     88.38% # Class of committed instruction. (Count)
board.processor.switch.core.commitStats0.committedInstType::FloatSqrt            0      0.00%     88.38% # Class of committed instruction. (Count)
board.processor.switch.core.commitStats0.committedInstType::SimdAdd         5880      0.01%     88.39% # Class of committed instruction. (Count)
board.processor.switch.core.commitStats0.committedInstType::SimdAddAcc            0      0.00%     88.39% # Class of committed instruction. (Count)
board.processor.switch.core.commitStats0.committedInstType::SimdAlu        13526      0.03%     88.41% # Class of committed instruction. (Count)
board.processor.switch.core.commitStats0.committedInstType::SimdCmp          200      0.00%     88.42% # Class of committed instruction. (Count)
board.processor.switch.core.commitStats0.committedInstType::SimdCvt        14090      0.03%     88.44% # Class of committed instruction. (Count)
board.processor.switch.core.commitStats0.committedInstType::SimdMisc        15543      0.03%     88.47% # Class of committed instruction. (Count)
board.processor.switch.core.commitStats0.committedInstType::SimdMult            0      0.00%     88.47% # Class of committed instruction. (Count)
board.processor.switch.core.commitStats0.committedInstType::SimdMultAcc            0      0.00%     88.47% # Class of committed instruction. (Count)
board.processor.switch.core.commitStats0.committedInstType::SimdMatMultAcc            0      0.00%     88.47% # Class of committed instruction. (Count)
board.processor.switch.core.commitStats0.committedInstType::SimdShift          674      0.00%     88.48% # Class of committed instruction. (Count)
board.processor.switch.core.commitStats0.committedInstType::SimdShiftAcc            0      0.00%     88.48% # Class of committed instruction. (Count)
board.processor.switch.core.commitStats0.committedInstType::SimdDiv            0      0.00%     88.48% # Class of committed instruction. (Count)
board.processor.switch.core.commitStats0.committedInstType::SimdSqrt            0      0.00%     88.48% # Class of committed instruction. (Count)
board.processor.switch.core.commitStats0.committedInstType::SimdFloatAdd            0      0.00%     88.48% # Class of committed instruction. (Count)
board.processor.switch.core.commitStats0.committedInstType::SimdFloatAlu            0      0.00%     88.48% # Class of committed instruction. (Count)
board.processor.switch.core.commitStats0.committedInstType::SimdFloatCmp            0      0.00%     88.48% # Class of committed instruction. (Count)
board.processor.switch.core.commitStats0.committedInstType::SimdFloatCvt            0      0.00%     88.48% # Class of committed instruction. (Count)
board.processor.switch.core.commitStats0.committedInstType::SimdFloatDiv            0      0.00%     88.48% # Class of committed instruction. (Count)
board.processor.switch.core.commitStats0.committedInstType::SimdFloatMisc            0      0.00%     88.48% # Class of committed instruction. (Count)
board.processor.switch.core.commitStats0.committedInstType::SimdFloatMult            0      0.00%     88.48% # Class of committed instruction. (Count)
board.processor.switch.core.commitStats0.committedInstType::SimdFloatMultAcc            0      0.00%     88.48% # Class of committed instruction. (Count)
board.processor.switch.core.commitStats0.committedInstType::SimdFloatMatMultAcc            0      0.00%     88.48% # Class of committed instruction. (Count)
board.processor.switch.core.commitStats0.committedInstType::SimdFloatSqrt            0      0.00%     88.48% # Class of committed instruction. (Count)
board.processor.switch.core.commitStats0.committedInstType::SimdReduceAdd            0      0.00%     88.48% # Class of committed instruction. (Count)
board.processor.switch.core.commitStats0.committedInstType::SimdReduceAlu            0      0.00%     88.48% # Class of committed instruction. (Count)
board.processor.switch.core.commitStats0.committedInstType::SimdReduceCmp            0      0.00%     88.48% # Class of committed instruction. (Count)
board.processor.switch.core.commitStats0.committedInstType::SimdFloatReduceAdd            0      0.00%     88.48% # Class of committed instruction. (Count)
board.processor.switch.core.commitStats0.committedInstType::SimdFloatReduceCmp            0      0.00%     88.48% # Class of committed instruction. (Count)
board.processor.switch.core.commitStats0.committedInstType::SimdAes            0      0.00%     88.48% # Class of committed instruction. (Count)
board.processor.switch.core.commitStats0.committedInstType::SimdAesMix            0      0.00%     88.48% # Class of committed instruction. (Count)
board.processor.switch.core.commitStats0.committedInstType::SimdSha1Hash            0      0.00%     88.48% # Class of committed instruction. (Count)
board.processor.switch.core.commitStats0.committedInstType::SimdSha1Hash2            0      0.00%     88.48% # Class of committed instruction. (Count)
board.processor.switch.core.commitStats0.committedInstType::SimdSha256Hash            0      0.00%     88.48% # Class of committed instruction. (Count)
board.processor.switch.core.commitStats0.committedInstType::SimdSha256Hash2            0      0.00%     88.48% # Class of committed instruction. (Count)
board.processor.switch.core.commitStats0.committedInstType::SimdShaSigma2            0      0.00%     88.48% # Class of committed instruction. (Count)
board.processor.switch.core.commitStats0.committedInstType::SimdShaSigma3            0      0.00%     88.48% # Class of committed instruction. (Count)
board.processor.switch.core.commitStats0.committedInstType::SimdPredAlu            0      0.00%     88.48% # Class of committed instruction. (Count)
board.processor.switch.core.commitStats0.committedInstType::Matrix            0      0.00%     88.48% # Class of committed instruction. (Count)
board.processor.switch.core.commitStats0.committedInstType::MatrixMov            0      0.00%     88.48% # Class of committed instruction. (Count)
board.processor.switch.core.commitStats0.committedInstType::MatrixOP            0      0.00%     88.48% # Class of committed instruction. (Count)
board.processor.switch.core.commitStats0.committedInstType::MemRead      3367669      6.77%     95.25% # Class of committed instruction. (Count)
board.processor.switch.core.commitStats0.committedInstType::MemWrite      2323191      4.67%     99.91% # Class of committed instruction. (Count)
board.processor.switch.core.commitStats0.committedInstType::FloatMemRead        20527      0.04%     99.96% # Class of committed instruction. (Count)
board.processor.switch.core.commitStats0.committedInstType::FloatMemWrite        21984      0.04%    100.00% # Class of committed instruction. (Count)
board.processor.switch.core.commitStats0.committedInstType::IprAccess            0      0.00%    100.00% # Class of committed instruction. (Count)
board.processor.switch.core.commitStats0.committedInstType::InstPrefetch            0      0.00%    100.00% # Class of committed instruction. (Count)
board.processor.switch.core.commitStats0.committedInstType::VectorUnitStrideLoad            0      0.00%    100.00% # Class of committed instruction. (Count)
board.processor.switch.core.commitStats0.committedInstType::VectorUnitStrideStore            0      0.00%    100.00% # Class of committed instruction. (Count)
board.processor.switch.core.commitStats0.committedInstType::VectorUnitStrideMaskLoad            0      0.00%    100.00% # Class of committed instruction. (Count)
board.processor.switch.core.commitStats0.committedInstType::VectorUnitStrideMaskStore            0      0.00%    100.00% # Class of committed instruction. (Count)
board.processor.switch.core.commitStats0.committedInstType::VectorStridedLoad            0      0.00%    100.00% # Class of committed instruction. (Count)
board.processor.switch.core.commitStats0.committedInstType::VectorStridedStore            0      0.00%    100.00% # Class of committed instruction. (Count)
board.processor.switch.core.commitStats0.committedInstType::VectorIndexedLoad            0      0.00%    100.00% # Class of committed instruction. (Count)
board.processor.switch.core.commitStats0.committedInstType::VectorIndexedStore            0      0.00%    100.00% # Class of committed instruction. (Count)
board.processor.switch.core.commitStats0.committedInstType::VectorUnitStrideFaultOnlyFirstLoad            0      0.00%    100.00% # Class of committed instruction. (Count)
board.processor.switch.core.commitStats0.committedInstType::VectorWholeRegisterLoad            0      0.00%    100.00% # Class of committed instruction. (Count)
board.processor.switch.core.commitStats0.committedInstType::VectorWholeRegisterStore            0      0.00%    100.00% # Class of committed instruction. (Count)
board.processor.switch.core.commitStats0.committedInstType::VectorIntegerArith            0      0.00%    100.00% # Class of committed instruction. (Count)
board.processor.switch.core.commitStats0.committedInstType::VectorFloatArith            0      0.00%    100.00% # Class of committed instruction. (Count)
board.processor.switch.core.commitStats0.committedInstType::VectorFloatConvert            0      0.00%    100.00% # Class of committed instruction. (Count)
board.processor.switch.core.commitStats0.committedInstType::VectorIntegerReduce            0      0.00%    100.00% # Class of committed instruction. (Count)
board.processor.switch.core.commitStats0.committedInstType::VectorFloatReduce            0      0.00%    100.00% # Class of committed instruction. (Count)
board.processor.switch.core.commitStats0.committedInstType::VectorMisc            0      0.00%    100.00% # Class of committed instruction. (Count)
board.processor.switch.core.commitStats0.committedInstType::VectorIntegerExtension            0      0.00%    100.00% # Class of committed instruction. (Count)
board.processor.switch.core.commitStats0.committedInstType::VectorConfig            0      0.00%    100.00% # Class of committed instruction. (Count)
board.processor.switch.core.commitStats0.committedInstType::total     49752938                       # Class of committed instruction. (Count)
board.processor.switch.core.commitStats0.committedControl::IsControl      9231052                       # Class of control type instructions committed (Count)
board.processor.switch.core.commitStats0.committedControl::IsDirectControl      8844082                       # Class of control type instructions committed (Count)
board.processor.switch.core.commitStats0.committedControl::IsIndirectControl       384134                       # Class of control type instructions committed (Count)
board.processor.switch.core.commitStats0.committedControl::IsCondControl      8263396                       # Class of control type instructions committed (Count)
board.processor.switch.core.commitStats0.committedControl::IsUncondControl       967196                       # Class of control type instructions committed (Count)
board.processor.switch.core.commitStats0.committedControl::IsCall       383669                       # Class of control type instructions committed (Count)
board.processor.switch.core.commitStats0.committedControl::IsReturn       373570                       # Class of control type instructions committed (Count)
board.processor.switch.core.exec_context.thread_0.numMatAluAccesses            0                       # Number of matrix alu accesses (Count)
board.processor.switch.core.exec_context.thread_0.numCallsReturns       757239                       # Number of times a function call or return occured (Count)
board.processor.switch.core.exec_context.thread_0.numMatInsts            0                       # Number of matrix instructions (Count)
board.processor.switch.core.exec_context.thread_0.numIdleCycles            0                       # Number of idle cycles (Cycle)
board.processor.switch.core.exec_context.thread_0.numBusyCycles   1757548433                       # Number of busy cycles (Cycle)
board.processor.switch.core.exec_context.thread_0.notIdleFraction            1                       # Percentage of non-idle cycles (Ratio)
board.processor.switch.core.exec_context.thread_0.idleFraction            0                       # Percentage of idle cycles (Ratio)
board.processor.switch.core.executeStats0.numInsts            0                       # Number of executed instructions (Count)
board.processor.switch.core.executeStats0.numNop            0                       # Number of nop insts executed (Count)
board.processor.switch.core.executeStats0.numBranches            0                       # Number of branches executed (Count)
board.processor.switch.core.executeStats0.numLoadInsts            0                       # Number of load instructions executed (Count)
board.processor.switch.core.executeStats0.numStoreInsts      5733371                       # Number of stores executed (Count)
board.processor.switch.core.executeStats0.instRate            0                       # Inst execution rate ((Count/Cycle))
board.processor.switch.core.executeStats0.numFpAluAccesses       106036                       # Number of float alu accesses (Count)
board.processor.switch.core.executeStats0.numFpRegReads       141063                       # Number of times the floating registers were read (Count)
board.processor.switch.core.executeStats0.numFpRegWrites        73124                       # Number of times the floating registers were written (Count)
board.processor.switch.core.executeStats0.numIntAluAccesses     48709533                       # Number of integer alu accesses (Count)
board.processor.switch.core.executeStats0.numIntRegReads     52214594                       # Number of times the integer registers were read (Count)
board.processor.switch.core.executeStats0.numIntRegWrites     36580890                       # Number of times the integer registers were written (Count)
board.processor.switch.core.executeStats0.numMemRefs      5733371                       # Number of memory refs (Count)
board.processor.switch.core.executeStats0.numMiscRegReads     22657226                       # Number of times the Misc registers were read (Count)
board.processor.switch.core.executeStats0.numMiscRegWrites        46957                       # Number of times the Misc registers were written (Count)
board.processor.switch.core.executeStats0.numVecAluAccesses            0                       # Number of vector alu accesses (Count)
board.processor.switch.core.executeStats0.numDiscardedOps            0                       # Number of ops (including micro ops) which were discarded before commit (Count)
board.processor.switch.core.fetchStats0.numInsts     23070903                       # Number of instructions fetched (thread level) (Count)
board.processor.switch.core.fetchStats0.numOps     49752938                       # Number of ops (including micro ops) fetched (thread level) (Count)
board.processor.switch.core.fetchStats0.fetchRate     0.013127                       # Number of inst fetches per cycle ((Count/Cycle))
board.processor.switch.core.fetchStats0.numBranches      9231052                       # Number of branches fetched (Count)
board.processor.switch.core.fetchStats0.branchRate     0.005252                       # Number of branch fetches per cycle (Ratio)
board.processor.switch.core.fetchStats0.numFetchSuspends            0                       # Number of times Execute suspended instruction fetching (Count)
board.processor.switch.core.mmu.dtb.rdAccesses      3390825                       # TLB accesses on read requests (Count)
board.processor.switch.core.mmu.dtb.wrAccesses      2345270                       # TLB accesses on write requests (Count)
board.processor.switch.core.mmu.dtb.rdMisses         3036                       # TLB misses on read requests (Count)
board.processor.switch.core.mmu.dtb.wrMisses          505                       # TLB misses on write requests (Count)
board.processor.switch.core.mmu.dtb.walker.power_state.pwrStateResidencyTicks::UNDEFINED 11183668021565                       # Cumulative time (in ticks) in various power states (Tick)
board.processor.switch.core.mmu.itb.rdAccesses            0                       # TLB accesses on read requests (Count)
board.processor.switch.core.mmu.itb.wrAccesses     26402516                       # TLB accesses on write requests (Count)
board.processor.switch.core.mmu.itb.rdMisses            0                       # TLB misses on read requests (Count)
board.processor.switch.core.mmu.itb.wrMisses         2108                       # TLB misses on write requests (Count)
board.processor.switch.core.mmu.itb.walker.power_state.pwrStateResidencyTicks::UNDEFINED 11183668021565                       # Cumulative time (in ticks) in various power states (Tick)
board.processor.switch.core.power_state.pwrStateResidencyTicks::OFF 11183668021565                       # Cumulative time (in ticks) in various power states (Tick)
board.processor.switch.core.thread_0.numInsts            0                       # Number of Instructions committed (Count)
board.processor.switch.core.thread_0.numOps            0                       # Number of Ops committed (Count)
board.processor.switch.core.thread_0.numMemRefs            0                       # Number of Memory References (Count)
board.workload.inst.arm                             0                       # number of arm instructions executed (Count)
board.workload.inst.quiesce                         0                       # number of quiesce instructions executed (Count)

---------- End Simulation Statistics   ----------
